<?xml version="1.0" encoding="UTF-8"?>

<!-- generated on 2024-03-09 01:32:29 by Eclipse SUMO netedit Version 1.19.0
<configuration xmlns:xsi="http://www.w3.org/2001/XMLSchema-instance" xsi:noNamespaceSchemaLocation="http://sumo.dlr.de/xsd/neteditConfiguration.xsd">

    <input>
        <sumo-net-file value="C:\Users\XT\Desktop\Capstone_AIforTraffic\Spring Week 6\22grid.net.xml"/>
    </input>

    <output>
        <output-file value="C:\Users\XT\Desktop\Capstone_AIforTraffic\Spring Week 6\22grid.net.xml"/>
    </output>

    <processing>
        <geometry.min-radius.fix.railways value="false"/>
        <geometry.max-grade.fix value="false"/>
        <offset.disable-normalization value="true"/>
        <lefthand value="0"/>
    </processing>

    <junctions>
        <no-turnarounds value="true"/>
        <junctions.corner-detail value="5"/>
        <junctions.limit-turn-speed value="5.50"/>
        <rectangular-lane-cut value="0"/>
    </junctions>

    <pedestrian>
        <walkingareas value="0"/>
    </pedestrian>

</configuration>
-->

<net version="1.16" junctionCornerDetail="5" limitTurnSpeed="5.50" xmlns:xsi="http://www.w3.org/2001/XMLSchema-instance" xsi:noNamespaceSchemaLocation="http://sumo.dlr.de/xsd/net_file.xsd">

    <location netOffset="0.00,0.00" convBoundary="0.00,0.00,300.00,300.00" origBoundary="0.00,0.00,400.00,400.00" projParameter="!"/>

    <edge id=":A1_0" function="internal">
        <lane id=":A1_0_0" index="0" speed="3.65" length="4.67" shape="0.00,101.60 -1.20,100.80 -1.60,100.00 -1.20,99.20 0.00,98.40"/>
    </edge>
    <edge id=":A2_0" function="internal">
        <lane id=":A2_0_0" index="0" speed="3.65" length="4.67" shape="0.00,201.60 -1.20,200.80 -1.60,200.00 -1.20,199.20 0.00,198.40"/>
    </edge>
    <edge id=":B0_0" function="internal">
        <lane id=":B0_0_0" index="0" speed="3.65" length="4.67" shape="98.40,0.00 99.20,-1.20 100.00,-1.60 100.80,-1.20 101.60,0.00"/>
    </edge>
    <edge id=":B1_0" function="internal">
        <lane id=":B1_0_0" index="0" speed="6.51" length="9.03" shape="92.00,113.60 91.65,111.15 90.60,109.40 88.85,108.35 86.40,108.00"/>
    </edge>
    <edge id=":B1_1" function="internal">
        <lane id=":B1_1_0" index="0" speed="13.89" length="27.20" shape="95.20,113.60 95.20,86.40"/>
    </edge>
    <edge id=":B1_2" function="internal">
        <lane id=":B1_2_0" index="0" speed="10.36" length="12.07" shape="98.40,113.60 99.35,106.95 102.10,102.36"/>
    </edge>
    <edge id=":B1_12" function="internal">
        <lane id=":B1_12_0" index="0" speed="10.36" length="12.44" shape="102.10,102.36 102.20,102.20 106.95,99.35 113.60,98.40"/>
    </edge>
    <edge id=":B1_3" function="internal">
        <lane id=":B1_3_0" index="0" speed="6.51" length="9.03" shape="113.60,108.00 111.15,108.35 109.40,109.40 108.35,111.15 108.00,113.60"/>
    </edge>
    <edge id=":B1_4" function="internal">
        <lane id=":B1_4_0" index="0" speed="13.89" length="27.20" shape="113.60,104.80 86.40,104.80"/>
    </edge>
    <edge id=":B1_5" function="internal">
        <lane id=":B1_5_0" index="0" speed="10.36" length="12.07" shape="113.60,101.60 106.95,100.65 102.36,97.90"/>
    </edge>
    <edge id=":B1_13" function="internal">
        <lane id=":B1_13_0" index="0" speed="10.36" length="12.44" shape="102.36,97.90 102.20,97.80 99.35,93.05 98.40,86.40"/>
    </edge>
    <edge id=":B1_6" function="internal">
        <lane id=":B1_6_0" index="0" speed="6.51" length="9.03" shape="108.00,86.40 108.35,88.85 109.40,90.60 111.15,91.65 113.60,92.00"/>
    </edge>
    <edge id=":B1_7" function="internal">
        <lane id=":B1_7_0" index="0" speed="13.89" length="27.20" shape="104.80,86.40 104.80,113.60"/>
    </edge>
    <edge id=":B1_8" function="internal">
        <lane id=":B1_8_0" index="0" speed="10.36" length="12.07" shape="101.60,86.40 100.65,93.05 97.90,97.64"/>
    </edge>
    <edge id=":B1_14" function="internal">
        <lane id=":B1_14_0" index="0" speed="10.36" length="12.44" shape="97.90,97.64 97.80,97.80 93.05,100.65 86.40,101.60"/>
    </edge>
    <edge id=":B1_9" function="internal">
        <lane id=":B1_9_0" index="0" speed="6.51" length="9.03" shape="86.40,92.00 88.85,91.65 90.60,90.60 91.65,88.85 92.00,86.40"/>
    </edge>
    <edge id=":B1_10" function="internal">
        <lane id=":B1_10_0" index="0" speed="13.89" length="27.20" shape="86.40,95.20 113.60,95.20"/>
    </edge>
    <edge id=":B1_11" function="internal">
        <lane id=":B1_11_0" index="0" speed="10.36" length="12.07" shape="86.40,98.40 93.05,99.35 97.64,102.10"/>
    </edge>
    <edge id=":B1_15" function="internal">
        <lane id=":B1_15_0" index="0" speed="10.36" length="12.44" shape="97.64,102.10 97.80,102.20 100.65,106.95 101.60,113.60"/>
    </edge>
    <edge id=":B2_0" function="internal">
        <lane id=":B2_0_0" index="0" speed="6.51" length="9.03" shape="92.00,213.60 91.65,211.15 90.60,209.40 88.85,208.35 86.40,208.00"/>
    </edge>
    <edge id=":B2_1" function="internal">
        <lane id=":B2_1_0" index="0" speed="13.89" length="27.20" shape="95.20,213.60 95.20,186.40"/>
    </edge>
    <edge id=":B2_2" function="internal">
        <lane id=":B2_2_0" index="0" speed="10.36" length="12.07" shape="98.40,213.60 99.35,206.95 102.10,202.36"/>
    </edge>
    <edge id=":B2_12" function="internal">
        <lane id=":B2_12_0" index="0" speed="10.36" length="12.44" shape="102.10,202.36 102.20,202.20 106.95,199.35 113.60,198.40"/>
    </edge>
    <edge id=":B2_3" function="internal">
        <lane id=":B2_3_0" index="0" speed="6.51" length="9.03" shape="113.60,208.00 111.15,208.35 109.40,209.40 108.35,211.15 108.00,213.60"/>
    </edge>
    <edge id=":B2_4" function="internal">
        <lane id=":B2_4_0" index="0" speed="13.89" length="27.20" shape="113.60,204.80 86.40,204.80"/>
    </edge>
    <edge id=":B2_5" function="internal">
        <lane id=":B2_5_0" index="0" speed="10.36" length="12.07" shape="113.60,201.60 106.95,200.65 102.36,197.90"/>
    </edge>
    <edge id=":B2_13" function="internal">
        <lane id=":B2_13_0" index="0" speed="10.36" length="12.44" shape="102.36,197.90 102.20,197.80 99.35,193.05 98.40,186.40"/>
    </edge>
    <edge id=":B2_6" function="internal">
        <lane id=":B2_6_0" index="0" speed="6.51" length="9.03" shape="108.00,186.40 108.35,188.85 109.40,190.60 111.15,191.65 113.60,192.00"/>
    </edge>
    <edge id=":B2_7" function="internal">
        <lane id=":B2_7_0" index="0" speed="13.89" length="27.20" shape="104.80,186.40 104.80,213.60"/>
    </edge>
    <edge id=":B2_8" function="internal">
        <lane id=":B2_8_0" index="0" speed="10.36" length="12.07" shape="101.60,186.40 100.65,193.05 97.90,197.64"/>
    </edge>
    <edge id=":B2_14" function="internal">
        <lane id=":B2_14_0" index="0" speed="10.36" length="12.44" shape="97.90,197.64 97.80,197.80 93.05,200.65 86.40,201.60"/>
    </edge>
    <edge id=":B2_9" function="internal">
        <lane id=":B2_9_0" index="0" speed="6.51" length="9.03" shape="86.40,192.00 88.85,191.65 90.60,190.60 91.65,188.85 92.00,186.40"/>
    </edge>
    <edge id=":B2_10" function="internal">
        <lane id=":B2_10_0" index="0" speed="13.89" length="27.20" shape="86.40,195.20 113.60,195.20"/>
    </edge>
    <edge id=":B2_11" function="internal">
        <lane id=":B2_11_0" index="0" speed="10.36" length="12.07" shape="86.40,198.40 93.05,199.35 97.64,202.10"/>
    </edge>
    <edge id=":B2_15" function="internal">
        <lane id=":B2_15_0" index="0" speed="10.36" length="12.44" shape="97.64,202.10 97.80,202.20 100.65,206.95 101.60,213.60"/>
    </edge>
    <edge id=":B3_0" function="internal">
        <lane id=":B3_0_0" index="0" speed="3.65" length="4.67" shape="101.60,300.00 100.80,301.20 100.00,301.60 99.20,301.20 98.40,300.00"/>
    </edge>
    <edge id=":C0_0" function="internal">
        <lane id=":C0_0_0" index="0" speed="3.65" length="4.67" shape="198.40,0.00 199.20,-1.20 200.00,-1.60 200.80,-1.20 201.60,0.00"/>
    </edge>
    <edge id=":C1_0" function="internal">
        <lane id=":C1_0_0" index="0" speed="6.51" length="9.03" shape="192.00,113.60 191.65,111.15 190.60,109.40 188.85,108.35 186.40,108.00"/>
    </edge>
    <edge id=":C1_1" function="internal">
        <lane id=":C1_1_0" index="0" speed="13.89" length="27.20" shape="195.20,113.60 195.20,86.40"/>
    </edge>
    <edge id=":C1_2" function="internal">
        <lane id=":C1_2_0" index="0" speed="10.36" length="12.07" shape="198.40,113.60 199.35,106.95 202.10,102.36"/>
    </edge>
    <edge id=":C1_12" function="internal">
        <lane id=":C1_12_0" index="0" speed="10.36" length="12.44" shape="202.10,102.36 202.20,102.20 206.95,99.35 213.60,98.40"/>
    </edge>
    <edge id=":C1_3" function="internal">
        <lane id=":C1_3_0" index="0" speed="6.51" length="9.03" shape="213.60,108.00 211.15,108.35 209.40,109.40 208.35,111.15 208.00,113.60"/>
    </edge>
    <edge id=":C1_4" function="internal">
        <lane id=":C1_4_0" index="0" speed="13.89" length="27.20" shape="213.60,104.80 186.40,104.80"/>
    </edge>
    <edge id=":C1_5" function="internal">
        <lane id=":C1_5_0" index="0" speed="10.36" length="12.07" shape="213.60,101.60 206.95,100.65 202.36,97.90"/>
    </edge>
    <edge id=":C1_13" function="internal">
        <lane id=":C1_13_0" index="0" speed="10.36" length="12.44" shape="202.36,97.90 202.20,97.80 199.35,93.05 198.40,86.40"/>
    </edge>
    <edge id=":C1_6" function="internal">
        <lane id=":C1_6_0" index="0" speed="6.51" length="9.03" shape="208.00,86.40 208.35,88.85 209.40,90.60 211.15,91.65 213.60,92.00"/>
    </edge>
    <edge id=":C1_7" function="internal">
        <lane id=":C1_7_0" index="0" speed="13.89" length="27.20" shape="204.80,86.40 204.80,113.60"/>
    </edge>
    <edge id=":C1_8" function="internal">
        <lane id=":C1_8_0" index="0" speed="10.36" length="12.07" shape="201.60,86.40 200.65,93.05 197.90,97.64"/>
    </edge>
    <edge id=":C1_14" function="internal">
        <lane id=":C1_14_0" index="0" speed="10.36" length="12.44" shape="197.90,97.64 197.80,97.80 193.05,100.65 186.40,101.60"/>
    </edge>
    <edge id=":C1_9" function="internal">
        <lane id=":C1_9_0" index="0" speed="6.51" length="9.03" shape="186.40,92.00 188.85,91.65 190.60,90.60 191.65,88.85 192.00,86.40"/>
    </edge>
    <edge id=":C1_10" function="internal">
        <lane id=":C1_10_0" index="0" speed="13.89" length="27.20" shape="186.40,95.20 213.60,95.20"/>
    </edge>
    <edge id=":C1_11" function="internal">
        <lane id=":C1_11_0" index="0" speed="10.36" length="12.07" shape="186.40,98.40 193.05,99.35 197.64,102.10"/>
    </edge>
    <edge id=":C1_15" function="internal">
        <lane id=":C1_15_0" index="0" speed="10.36" length="12.44" shape="197.64,102.10 197.80,102.20 200.65,106.95 201.60,113.60"/>
    </edge>
    <edge id=":C2_0" function="internal">
        <lane id=":C2_0_0" index="0" speed="6.51" length="9.03" shape="192.00,213.60 191.65,211.15 190.60,209.40 188.85,208.35 186.40,208.00"/>
    </edge>
    <edge id=":C2_1" function="internal">
        <lane id=":C2_1_0" index="0" speed="13.89" length="27.20" shape="195.20,213.60 195.20,186.40"/>
    </edge>
    <edge id=":C2_2" function="internal">
        <lane id=":C2_2_0" index="0" speed="10.36" length="12.07" shape="198.40,213.60 199.35,206.95 202.10,202.36"/>
    </edge>
    <edge id=":C2_12" function="internal">
        <lane id=":C2_12_0" index="0" speed="10.36" length="12.44" shape="202.10,202.36 202.20,202.20 206.95,199.35 213.60,198.40"/>
    </edge>
    <edge id=":C2_3" function="internal">
        <lane id=":C2_3_0" index="0" speed="6.51" length="9.03" shape="213.60,208.00 211.15,208.35 209.40,209.40 208.35,211.15 208.00,213.60"/>
    </edge>
    <edge id=":C2_4" function="internal">
        <lane id=":C2_4_0" index="0" speed="13.89" length="27.20" shape="213.60,204.80 186.40,204.80"/>
    </edge>
    <edge id=":C2_5" function="internal">
        <lane id=":C2_5_0" index="0" speed="10.36" length="12.07" shape="213.60,201.60 206.95,200.65 202.36,197.90"/>
    </edge>
    <edge id=":C2_13" function="internal">
        <lane id=":C2_13_0" index="0" speed="10.36" length="12.44" shape="202.36,197.90 202.20,197.80 199.35,193.05 198.40,186.40"/>
    </edge>
    <edge id=":C2_6" function="internal">
        <lane id=":C2_6_0" index="0" speed="6.51" length="9.03" shape="208.00,186.40 208.35,188.85 209.40,190.60 211.15,191.65 213.60,192.00"/>
    </edge>
    <edge id=":C2_7" function="internal">
        <lane id=":C2_7_0" index="0" speed="13.89" length="27.20" shape="204.80,186.40 204.80,213.60"/>
    </edge>
    <edge id=":C2_8" function="internal">
        <lane id=":C2_8_0" index="0" speed="10.36" length="12.07" shape="201.60,186.40 200.65,193.05 197.90,197.64"/>
    </edge>
    <edge id=":C2_14" function="internal">
        <lane id=":C2_14_0" index="0" speed="10.36" length="12.44" shape="197.90,197.64 197.80,197.80 193.05,200.65 186.40,201.60"/>
    </edge>
    <edge id=":C2_9" function="internal">
        <lane id=":C2_9_0" index="0" speed="6.51" length="9.03" shape="186.40,192.00 188.85,191.65 190.60,190.60 191.65,188.85 192.00,186.40"/>
    </edge>
    <edge id=":C2_10" function="internal">
        <lane id=":C2_10_0" index="0" speed="13.89" length="27.20" shape="186.40,195.20 213.60,195.20"/>
    </edge>
    <edge id=":C2_11" function="internal">
        <lane id=":C2_11_0" index="0" speed="10.36" length="12.07" shape="186.40,198.40 193.05,199.35 197.64,202.10"/>
    </edge>
    <edge id=":C2_15" function="internal">
        <lane id=":C2_15_0" index="0" speed="10.36" length="12.44" shape="197.64,202.10 197.80,202.20 200.65,206.95 201.60,213.60"/>
    </edge>
    <edge id=":C3_0" function="internal">
        <lane id=":C3_0_0" index="0" speed="3.65" length="4.67" shape="201.60,300.00 200.80,301.20 200.00,301.60 199.20,301.20 198.40,300.00"/>
    </edge>
    <edge id=":D1_0" function="internal">
        <lane id=":D1_0_0" index="0" speed="3.65" length="4.67" shape="300.00,98.40 301.20,99.20 301.60,100.00 301.20,100.80 300.00,101.60"/>
    </edge>
    <edge id=":D2_0" function="internal">
        <lane id=":D2_0_0" index="0" speed="3.65" length="4.67" shape="300.00,198.40 301.20,199.20 301.60,200.00 301.20,200.80 300.00,201.60"/>
    </edge>

    <edge id="A1B1" from="A1" to="B1" priority="-1">
        <lane id="A1B1_0" index="0" speed="13.89" length="86.40" shape="0.00,92.00 86.40,92.00"/>
        <lane id="A1B1_1" index="1" speed="13.89" length="86.40" shape="0.00,95.20 86.40,95.20"/>
        <lane id="A1B1_2" index="2" speed="13.89" length="86.40" shape="0.00,98.40 86.40,98.40"/>
    </edge>
    <edge id="A2B2" from="A2" to="B2" priority="-1">
        <lane id="A2B2_0" index="0" speed="13.89" length="86.40" shape="0.00,192.00 86.40,192.00"/>
        <lane id="A2B2_1" index="1" speed="13.89" length="86.40" shape="0.00,195.20 86.40,195.20"/>
        <lane id="A2B2_2" index="2" speed="13.89" length="86.40" shape="0.00,198.40 86.40,198.40"/>
    </edge>
    <edge id="B0B1" from="B0" to="B1" priority="-1">
        <lane id="B0B1_0" index="0" speed="13.89" length="86.40" shape="108.00,0.00 108.00,86.40"/>
        <lane id="B0B1_1" index="1" speed="13.89" length="86.40" shape="104.80,0.00 104.80,86.40"/>
        <lane id="B0B1_2" index="2" speed="13.89" length="86.40" shape="101.60,0.00 101.60,86.40"/>
    </edge>
    <edge id="B1A1" from="B1" to="A1" priority="-1">
        <lane id="B1A1_0" index="0" speed="13.89" length="86.40" shape="86.40,108.00 0.00,108.00"/>
        <lane id="B1A1_1" index="1" speed="13.89" length="86.40" shape="86.40,104.80 0.00,104.80"/>
        <lane id="B1A1_2" index="2" speed="13.89" length="86.40" shape="86.40,101.60 0.00,101.60"/>
    </edge>
    <edge id="B1B0" from="B1" to="B0" priority="-1">
        <lane id="B1B0_0" index="0" speed="13.89" length="86.40" shape="92.00,86.40 92.00,0.00"/>
        <lane id="B1B0_1" index="1" speed="13.89" length="86.40" shape="95.20,86.40 95.20,0.00"/>
        <lane id="B1B0_2" index="2" speed="13.89" length="86.40" shape="98.40,86.40 98.40,0.00"/>
    </edge>
    <edge id="B1B2" from="B1" to="B2" priority="-1">
        <lane id="B1B2_0" index="0" speed="13.89" length="72.80" shape="108.00,113.60 108.00,186.40"/>
        <lane id="B1B2_1" index="1" speed="13.89" length="72.80" shape="104.80,113.60 104.80,186.40"/>
        <lane id="B1B2_2" index="2" speed="13.89" length="72.80" shape="101.60,113.60 101.60,186.40"/>
    </edge>
    <edge id="B1C1" from="B1" to="C1" priority="-1">
        <lane id="B1C1_0" index="0" speed="13.89" length="72.80" shape="113.60,92.00 186.40,92.00"/>
        <lane id="B1C1_1" index="1" speed="13.89" length="72.80" shape="113.60,95.20 186.40,95.20"/>
        <lane id="B1C1_2" index="2" speed="13.89" length="72.80" shape="113.60,98.40 186.40,98.40"/>
    </edge>
    <edge id="B2A2" from="B2" to="A2" priority="-1">
        <lane id="B2A2_0" index="0" speed="13.89" length="86.40" shape="86.40,208.00 0.00,208.00"/>
        <lane id="B2A2_1" index="1" speed="13.89" length="86.40" shape="86.40,204.80 0.00,204.80"/>
        <lane id="B2A2_2" index="2" speed="13.89" length="86.40" shape="86.40,201.60 0.00,201.60"/>
    </edge>
    <edge id="B2B1" from="B2" to="B1" priority="-1">
        <lane id="B2B1_0" index="0" speed="13.89" length="72.80" shape="92.00,186.40 92.00,113.60"/>
        <lane id="B2B1_1" index="1" speed="13.89" length="72.80" shape="95.20,186.40 95.20,113.60"/>
        <lane id="B2B1_2" index="2" speed="13.89" length="72.80" shape="98.40,186.40 98.40,113.60"/>
    </edge>
    <edge id="B2B3" from="B2" to="B3" priority="-1">
        <lane id="B2B3_0" index="0" speed="13.89" length="86.40" shape="108.00,213.60 108.00,300.00"/>
        <lane id="B2B3_1" index="1" speed="13.89" length="86.40" shape="104.80,213.60 104.80,300.00"/>
        <lane id="B2B3_2" index="2" speed="13.89" length="86.40" shape="101.60,213.60 101.60,300.00"/>
    </edge>
    <edge id="B2C2" from="B2" to="C2" priority="-1">
        <lane id="B2C2_0" index="0" speed="13.89" length="72.80" shape="113.60,192.00 186.40,192.00"/>
        <lane id="B2C2_1" index="1" speed="13.89" length="72.80" shape="113.60,195.20 186.40,195.20"/>
        <lane id="B2C2_2" index="2" speed="13.89" length="72.80" shape="113.60,198.40 186.40,198.40"/>
    </edge>
    <edge id="B3B2" from="B3" to="B2" priority="-1">
        <lane id="B3B2_0" index="0" speed="13.89" length="86.40" shape="92.00,300.00 92.00,213.60"/>
        <lane id="B3B2_1" index="1" speed="13.89" length="86.40" shape="95.20,300.00 95.20,213.60"/>
        <lane id="B3B2_2" index="2" speed="13.89" length="86.40" shape="98.40,300.00 98.40,213.60"/>
    </edge>
    <edge id="C0C1" from="C0" to="C1" priority="-1">
        <lane id="C0C1_0" index="0" speed="13.89" length="86.40" shape="208.00,0.00 208.00,86.40"/>
        <lane id="C0C1_1" index="1" speed="13.89" length="86.40" shape="204.80,0.00 204.80,86.40"/>
        <lane id="C0C1_2" index="2" speed="13.89" length="86.40" shape="201.60,0.00 201.60,86.40"/>
    </edge>
    <edge id="C1B1" from="C1" to="B1" priority="-1">
        <lane id="C1B1_0" index="0" speed="13.89" length="72.80" shape="186.40,108.00 113.60,108.00"/>
        <lane id="C1B1_1" index="1" speed="13.89" length="72.80" shape="186.40,104.80 113.60,104.80"/>
        <lane id="C1B1_2" index="2" speed="13.89" length="72.80" shape="186.40,101.60 113.60,101.60"/>
    </edge>
    <edge id="C1C0" from="C1" to="C0" priority="-1">
        <lane id="C1C0_0" index="0" speed="13.89" length="86.40" shape="192.00,86.40 192.00,0.00"/>
        <lane id="C1C0_1" index="1" speed="13.89" length="86.40" shape="195.20,86.40 195.20,0.00"/>
        <lane id="C1C0_2" index="2" speed="13.89" length="86.40" shape="198.40,86.40 198.40,0.00"/>
    </edge>
    <edge id="C1C2" from="C1" to="C2" priority="-1">
        <lane id="C1C2_0" index="0" speed="13.89" length="72.80" shape="208.00,113.60 208.00,186.40"/>
        <lane id="C1C2_1" index="1" speed="13.89" length="72.80" shape="204.80,113.60 204.80,186.40"/>
        <lane id="C1C2_2" index="2" speed="13.89" length="72.80" shape="201.60,113.60 201.60,186.40"/>
    </edge>
    <edge id="C1D1" from="C1" to="D1" priority="-1">
        <lane id="C1D1_0" index="0" speed="13.89" length="86.40" shape="213.60,92.00 300.00,92.00"/>
        <lane id="C1D1_1" index="1" speed="13.89" length="86.40" shape="213.60,95.20 300.00,95.20"/>
        <lane id="C1D1_2" index="2" speed="13.89" length="86.40" shape="213.60,98.40 300.00,98.40"/>
    </edge>
    <edge id="C2B2" from="C2" to="B2" priority="-1">
        <lane id="C2B2_0" index="0" speed="13.89" length="72.80" shape="186.40,208.00 113.60,208.00"/>
        <lane id="C2B2_1" index="1" speed="13.89" length="72.80" shape="186.40,204.80 113.60,204.80"/>
        <lane id="C2B2_2" index="2" speed="13.89" length="72.80" shape="186.40,201.60 113.60,201.60"/>
    </edge>
    <edge id="C2C1" from="C2" to="C1" priority="-1">
        <lane id="C2C1_0" index="0" speed="13.89" length="72.80" shape="192.00,186.40 192.00,113.60"/>
        <lane id="C2C1_1" index="1" speed="13.89" length="72.80" shape="195.20,186.40 195.20,113.60"/>
        <lane id="C2C1_2" index="2" speed="13.89" length="72.80" shape="198.40,186.40 198.40,113.60"/>
    </edge>
    <edge id="C2C3" from="C2" to="C3" priority="-1">
        <lane id="C2C3_0" index="0" speed="13.89" length="86.40" shape="208.00,213.60 208.00,300.00"/>
        <lane id="C2C3_1" index="1" speed="13.89" length="86.40" shape="204.80,213.60 204.80,300.00"/>
        <lane id="C2C3_2" index="2" speed="13.89" length="86.40" shape="201.60,213.60 201.60,300.00"/>
    </edge>
    <edge id="C2D2" from="C2" to="D2" priority="-1">
        <lane id="C2D2_0" index="0" speed="13.89" length="86.40" shape="213.60,192.00 300.00,192.00"/>
        <lane id="C2D2_1" index="1" speed="13.89" length="86.40" shape="213.60,195.20 300.00,195.20"/>
        <lane id="C2D2_2" index="2" speed="13.89" length="86.40" shape="213.60,198.40 300.00,198.40"/>
    </edge>
    <edge id="C3C2" from="C3" to="C2" priority="-1">
        <lane id="C3C2_0" index="0" speed="13.89" length="86.40" shape="192.00,300.00 192.00,213.60"/>
        <lane id="C3C2_1" index="1" speed="13.89" length="86.40" shape="195.20,300.00 195.20,213.60"/>
        <lane id="C3C2_2" index="2" speed="13.89" length="86.40" shape="198.40,300.00 198.40,213.60"/>
    </edge>
    <edge id="D1C1" from="D1" to="C1" priority="-1">
        <lane id="D1C1_0" index="0" speed="13.89" length="86.40" shape="300.00,108.00 213.60,108.00"/>
        <lane id="D1C1_1" index="1" speed="13.89" length="86.40" shape="300.00,104.80 213.60,104.80"/>
        <lane id="D1C1_2" index="2" speed="13.89" length="86.40" shape="300.00,101.60 213.60,101.60"/>
    </edge>
    <edge id="D2C2" from="D2" to="C2" priority="-1">
        <lane id="D2C2_0" index="0" speed="13.89" length="86.40" shape="300.00,208.00 213.60,208.00"/>
        <lane id="D2C2_1" index="1" speed="13.89" length="86.40" shape="300.00,204.80 213.60,204.80"/>
        <lane id="D2C2_2" index="2" speed="13.89" length="86.40" shape="300.00,201.60 213.60,201.60"/>
    </edge>

    <tlLogic id="B1" type="static" programID="0" offset="0">
        <phase duration="33" state="GGgGrrGGgGrr"/>
        <phase duration="3"  state="yygyrryygyrr"/>
        <phase duration="6"  state="rrGrrrrrGrrr"/>
        <phase duration="3"  state="rryrrrrryrrr"/>
        <phase duration="33" state="GrrGGgGrrGGg"/>
        <phase duration="3"  state="yrryygyrryyg"/>
        <phase duration="6"  state="rrrrrGrrrrrG"/>
        <phase duration="3"  state="rrrrryrrrrry"/>
    </tlLogic>
    <tlLogic id="B2" type="static" programID="0" offset="0">
        <phase duration="33" state="GGgGrrGGgGrr"/>
        <phase duration="3"  state="yygyrryygyrr"/>
        <phase duration="6"  state="rrGrrrrrGrrr"/>
        <phase duration="3"  state="rryrrrrryrrr"/>
        <phase duration="33" state="GrrGGgGrrGGg"/>
        <phase duration="3"  state="yrryygyrryyg"/>
        <phase duration="6"  state="rrrrrGrrrrrG"/>
        <phase duration="3"  state="rrrrryrrrrry"/>
    </tlLogic>
    <tlLogic id="C1" type="static" programID="0" offset="0">
        <phase duration="33" state="GGgGrrGGgGrr"/>
        <phase duration="3"  state="yygyrryygyrr"/>
        <phase duration="6"  state="rrGrrrrrGrrr"/>
        <phase duration="3"  state="rryrrrrryrrr"/>
        <phase duration="33" state="GrrGGgGrrGGg"/>
        <phase duration="3"  state="yrryygyrryyg"/>
        <phase duration="6"  state="rrrrrGrrrrrG"/>
        <phase duration="3"  state="rrrrryrrrrry"/>
    </tlLogic>
    <tlLogic id="C2" type="static" programID="0" offset="0">
        <phase duration="33" state="GGgGrrGGgGrr"/>
        <phase duration="3"  state="yygyrryygyrr"/>
        <phase duration="6"  state="rrGrrrrrGrrr"/>
        <phase duration="3"  state="rryrrrrryrrr"/>
        <phase duration="33" state="GrrGGgGrrGGg"/>
        <phase duration="3"  state="yrryygyrryyg"/>
        <phase duration="6"  state="rrrrrGrrrrrG"/>
        <phase duration="3"  state="rrrrryrrrrry"/>
    </tlLogic>

    <junction id="A1" type="priority" x="0.00" y="100.00" incLanes="B1A1_0 B1A1_1 B1A1_2" intLanes=":A1_0_0" shape="0.00,100.00 0.00,109.60 0.00,100.00">
        <request index="0" response="0" foes="0" cont="0"/>
    </junction>
    <junction id="A2" type="priority" x="0.00" y="200.00" incLanes="B2A2_0 B2A2_1 B2A2_2" intLanes=":A2_0_0" shape="0.00,200.00 0.00,209.60 0.00,200.00">
        <request index="0" response="0" foes="0" cont="0"/>
    </junction>
    <junction id="B0" type="priority" x="100.00" y="0.00" incLanes="B1B0_0 B1B0_1 B1B0_2" intLanes=":B0_0_0" shape="100.00,0.00 90.40,0.00 100.00,0.00">
        <request index="0" response="0" foes="0" cont="0"/>
    </junction>
    <junction id="B1" type="traffic_light" x="100.00" y="100.00" incLanes="B2B1_0 B2B1_1 B2B1_2 C1B1_0 C1B1_1 C1B1_2 B0B1_0 B0B1_1 B0B1_2 A1B1_0 A1B1_1 A1B1_2" intLanes=":B1_0_0 :B1_1_0 :B1_12_0 :B1_3_0 :B1_4_0 :B1_13_0 :B1_6_0 :B1_7_0 :B1_14_0 :B1_9_0 :B1_10_0 :B1_15_0" shape="90.40,113.60 109.60,113.60 110.04,111.38 110.60,110.60 111.38,110.04 112.38,109.71 113.60,109.60 113.60,90.40 111.38,89.96 110.60,89.40 110.04,88.62 109.71,87.62 109.60,86.40 90.40,86.40 89.96,88.62 89.40,89.40 88.62,89.96 87.62,90.29 86.40,90.40 86.40,109.60 88.62,110.04 89.40,110.60 89.96,111.38 90.29,112.38">
        <request index="0"  response="000000000000" foes="000000000000" cont="0"/>
        <request index="1"  response="100000000000" foes="110100010000" cont="0"/>
        <request index="2"  response="100010100000" foes="100010110000" cont="1"/>
        <request index="3"  response="000000000000" foes="000000000000" cont="0"/>
        <request index="4"  response="000010000110" foes="100010000110" cont="0"/>
        <request index="5"  response="010110000100" foes="010110000100" cont="1"/>
        <request index="6"  response="000000000000" foes="000000000000" cont="0"/>
        <request index="7"  response="000000100000" foes="010000110100" cont="0"/>
        <request index="8"  response="100000100010" foes="110000100010" cont="1"/>
        <request index="9"  response="000000000000" foes="000000000000" cont="0"/>
        <request index="10" response="000110000010" foes="000110100010" cont="0"/>
        <request index="11" response="000100010110" foes="000100010110" cont="1"/>
    </junction>
    <junction id="B2" type="traffic_light" x="100.00" y="200.00" incLanes="B3B2_0 B3B2_1 B3B2_2 C2B2_0 C2B2_1 C2B2_2 B1B2_0 B1B2_1 B1B2_2 A2B2_0 A2B2_1 A2B2_2" intLanes=":B2_0_0 :B2_1_0 :B2_12_0 :B2_3_0 :B2_4_0 :B2_13_0 :B2_6_0 :B2_7_0 :B2_14_0 :B2_9_0 :B2_10_0 :B2_15_0" shape="90.40,213.60 109.60,213.60 110.04,211.38 110.60,210.60 111.38,210.04 112.38,209.71 113.60,209.60 113.60,190.40 111.38,189.96 110.60,189.40 110.04,188.62 109.71,187.62 109.60,186.40 90.40,186.40 89.96,188.62 89.40,189.40 88.62,189.96 87.62,190.29 86.40,190.40 86.40,209.60 88.62,210.04 89.40,210.60 89.96,211.38 90.29,212.38">
        <request index="0"  response="000000000000" foes="000000000000" cont="0"/>
        <request index="1"  response="100000000000" foes="110100010000" cont="0"/>
        <request index="2"  response="100010100000" foes="100010110000" cont="1"/>
        <request index="3"  response="000000000000" foes="000000000000" cont="0"/>
        <request index="4"  response="000010000110" foes="100010000110" cont="0"/>
        <request index="5"  response="010110000100" foes="010110000100" cont="1"/>
        <request index="6"  response="000000000000" foes="000000000000" cont="0"/>
        <request index="7"  response="000000100000" foes="010000110100" cont="0"/>
        <request index="8"  response="100000100010" foes="110000100010" cont="1"/>
        <request index="9"  response="000000000000" foes="000000000000" cont="0"/>
        <request index="10" response="000110000010" foes="000110100010" cont="0"/>
        <request index="11" response="000100010110" foes="000100010110" cont="1"/>
    </junction>
    <junction id="B3" type="priority" x="100.00" y="300.00" incLanes="B2B3_0 B2B3_1 B2B3_2" intLanes=":B3_0_0" shape="100.00,300.00 109.60,300.00 100.00,300.00">
        <request index="0" response="0" foes="0" cont="0"/>
    </junction>
    <junction id="C0" type="priority" x="200.00" y="0.00" incLanes="C1C0_0 C1C0_1 C1C0_2" intLanes=":C0_0_0" shape="200.00,0.00 190.40,0.00 200.00,0.00">
        <request index="0" response="0" foes="0" cont="0"/>
    </junction>