<routes>
            <vType id="CarA" length="5" maxSpeed="22" carFollowModel="IDM" actionStepLength="1" tau="1.4" speedDev="0.0" accel="1" decel="2" speedFactor="1.0" minGap="2" delta="4" stepping="1.5"/>
            
    <trip id="0" type="CarA" depart="102" fromJunction="J0" toJunction="J8" />
    <trip id="1" type="CarA" depart="112" fromJunction="J8" toJunction="J0" />
    <trip id="2" type="CarA" depart="121" fromJunction="J0" toJunction="J8" />
    <trip id="3" type="CarA" depart="145" fromJunction="J8" toJunction="J0" />
    <trip id="4" type="CarA" depart="148" fromJunction="J0" toJunction="J8" />
    <trip id="5" type="CarA" depart="161" fromJunction="J8" toJunction="J0" />
    <trip id="6" type="CarA" depart="164" fromJunction="J0" toJunction="J8" />
    <trip id="7" type="CarA" depart="168" fromJunction="J0" toJunction="J8" />
    <trip id="8" type="CarA" depart="172" fromJunction="J0" toJunction="J8" />
    <trip id="9" type="CarA" depart="180" fromJunction="J8" toJunction="J0" />
    <trip id="10" type="CarA" depart="187" fromJunction="J8" toJunction="J0" />
    <trip id="11" type="CarA" depart="189" fromJunction="J8" toJunction="J0" />
    <trip id="12" type="CarA" depart="191" fromJunction="J8" toJunction="J0" />
    <trip id="13" type="CarA" depart="192" fromJunction="J0" toJunction="J8" />
    <trip id="14" type="CarA" depart="194" fromJunction="J0" toJunction="J8" />
    <trip id="15" type="CarA" depart="195" fromJunction="J0" toJunction="J8" />
    <trip id="16" type="CarA" depart="197" fromJunction="J0" toJunction="J8" />
    <trip id="17" type="CarA" depart="199" fromJunction="J0" toJunction="J8" />
    <trip id="18" type="CarA" depart="199" fromJunction="J0" toJunction="J8" />
    <trip id="19" type="CarA" depart="199" fromJunction="J0" toJunction="J8" />
    <trip id="20" type="CarA" depart="200" fromJunction="J8" toJunction="J0" />
    <trip id="21" type="CarA" depart="201" fromJunction="J0" toJunction="J8" />
    <trip id="22" type="CarA" depart="202" fromJunction="J0" toJunction="J8" />
    <trip id="23" type="CarA" depart="205" fromJunction="J0" toJunction="J8" />
    <trip id="24" type="CarA" depart="205" fromJunction="J8" toJunction="J0" />
    <trip id="25" type="CarA" depart="205" fromJunction="J0" toJunction="J8" />
    <trip id="26" type="CarA" depart="209" fromJunction="J0" toJunction="J8" />
    <trip id="27" type="CarA" depart="211" fromJunction="J8" toJunction="J0" />
    <trip id="28" type="CarA" depart="211" fromJunction="J8" toJunction="J0" />
    <trip id="29" type="CarA" depart="212" fromJunction="J8" toJunction="J0" />
    <trip id="30" type="CarA" depart="214" fromJunction="J0" toJunction="J8" />
    <trip id="31" type="CarA" depart="215" fromJunction="J0" toJunction="J8" />
    <trip id="32" type="CarA" depart="215" fromJunction="J8" toJunction="J0" />
    <trip id="33" type="CarA" depart="218" fromJunction="J0" toJunction="J8" />
    <trip id="34" type="CarA" depart="219" fromJunction="J0" toJunction="J8" />
    <trip id="35" type="CarA" depart="221" fromJunction="J0" toJunction="J8" />
    <trip id="36" type="CarA" depart="221" fromJunction="J0" toJunction="J8" />
    <trip id="37" type="CarA" depart="222" fromJunction="J8" toJunction="J0" />
    <trip id="38" type="CarA" depart="224" fromJunction="J0" toJunction="J8" />
    <trip id="39" type="CarA" depart="224" fromJunction="J8" toJunction="J0" />
    <trip id="40" type="CarA" depart="226" fromJunction="J0" toJunction="J8" />
    <trip id="41" type="CarA" depart="227" fromJunction="J0" toJunction="J8" />
    <trip id="42" type="CarA" depart="229" fromJunction="J0" toJunction="J8" />
    <trip id="43" type="CarA" depart="230" fromJunction="J8" toJunction="J0" />
    <trip id="44" type="CarA" depart="231" fromJunction="J0" toJunction="J8" />
    <trip id="45" type="CarA" depart="232" fromJunction="J8" toJunction="J0" />
    <trip id="46" type="CarA" depart="234" fromJunction="J8" toJunction="J0" />
    <trip id="47" type="CarA" depart="234" fromJunction="J8" toJunction="J0" />
    <trip id="48" type="CarA" depart="235" fromJunction="J8" toJunction="J0" />
    <trip id="49" type="CarA" depart="235" fromJunction="J8" toJunction="J0" />
    <trip id="50" type="CarA" depart="236" fromJunction="J0" toJunction="J8" />
    <trip id="51" type="CarA" depart="236" fromJunction="J0" toJunction="J8" />
    <trip id="52" type="CarA" depart="236" fromJunction="J8" toJunction="J0" />
    <trip id="53" type="CarA" depart="237" fromJunction="J0" toJunction="J8" />
    <trip id="54" type="CarA" depart="237" fromJunction="J0" toJunction="J8" />
    <trip id="55" type="CarA" depart="238" fromJunction="J8" toJunction="J0" />
    <trip id="56" type="CarA" depart="239" fromJunction="J0" toJunction="J8" />
    <trip id="57" type="CarA" depart="239" fromJunction="J0" toJunction="J8" />
    <trip id="58" type="CarA" depart="241" fromJunction="J8" toJunction="J0" />
    <trip id="59" type="CarA" depart="242" fromJunction="J8" toJunction="J0" />
    <trip id="60" type="CarA" depart="242" fromJunction="J8" toJunction="J0" />
    <trip id="61" type="CarA" depart="243" fromJunction="J0" toJunction="J8" />
    <trip id="62" type="CarA" depart="244" fromJunction="J8" toJunction="J0" />
    <trip id="63" type="CarA" depart="245" fromJunction="J8" toJunction="J0" />
    <trip id="64" type="CarA" depart="246" fromJunction="J0" toJunction="J8" />
    <trip id="65" type="CarA" depart="246" fromJunction="J8" toJunction="J0" />
    <trip id="66" type="CarA" depart="247" fromJunction="J8" toJunction="J0" />
    <trip id="67" type="CarA" depart="248" fromJunction="J0" toJunction="J8" />
    <trip id="68" type="CarA" depart="250" fromJunction="J8" toJunction="J0" />
    <trip id="69" type="CarA" depart="251" fromJunction="J0" toJunction="J8" />
    <trip id="70" type="CarA" depart="251" fromJunction="J8" toJunction="J0" />
    <trip id="71" type="CarA" depart="252" fromJunction="J8" toJunction="J0" />
    <trip id="72" type="CarA" depart="254" fromJunction="J8" toJunction="J0" />
    <trip id="73" type="CarA" depart="255" fromJunction="J0" toJunction="J8" />
    <trip id="74" type="CarA" depart="257" fromJunction="J0" toJunction="J8" />
    <trip id="75" type="CarA" depart="258" fromJunction="J8" toJunction="J0" />
    <trip id="76" type="CarA" depart="259" fromJunction="J0" toJunction="J8" />
    <trip id="77" type="CarA" depart="259" fromJunction="J0" toJunction="J8" />
    <trip id="78" type="CarA" depart="259" fromJunction="J8" toJunction="J0" />
    <trip id="79" type="CarA" depart="261" fromJunction="J0" toJunction="J8" />
    <trip id="80" type="CarA" depart="262" fromJunction="J8" toJunction="J0" />
    <trip id="81" type="CarA" depart="262" fromJunction="J8" toJunction="J0" />
    <trip id="82" type="CarA" depart="264" fromJunction="J0" toJunction="J8" />
    <trip id="83" type="CarA" depart="266" fromJunction="J8" toJunction="J0" />
    <trip id="84" type="CarA" depart="266" fromJunction="J8" toJunction="J0" />
    <trip id="85" type="CarA" depart="266" fromJunction="J8" toJunction="J0" />
    <trip id="86" type="CarA" depart="266" fromJunction="J0" toJunction="J8" />
    <trip id="87" type="CarA" depart="269" fromJunction="J0" toJunction="J8" />
    <trip id="88" type="CarA" depart="270" fromJunction="J0" toJunction="J8" />
    <trip id="89" type="CarA" depart="270" fromJunction="J0" toJunction="J8" />
    <trip id="90" type="CarA" depart="271" fromJunction="J0" toJunction="J8" />
    <trip id="91" type="CarA" depart="271" fromJunction="J8" toJunction="J0" />
    <trip id="92" type="CarA" depart="271" fromJunction="J8" toJunction="J0" />
    <trip id="93" type="CarA" depart="272" fromJunction="J0" toJunction="J8" />
    <trip id="94" type="CarA" depart="272" fromJunction="J8" toJunction="J0" />
    <trip id="95" type="CarA" depart="272" fromJunction="J0" toJunction="J8" />
    <trip id="96" type="CarA" depart="273" fromJunction="J8" toJunction="J0" />
    <trip id="97" type="CarA" depart="273" fromJunction="J8" toJunction="J0" />
    <trip id="98" type="CarA" depart="275" fromJunction="J0" toJunction="J8" />
    <trip id="99" type="CarA" depart="275" fromJunction="J8" toJunction="J0" />
    <trip id="100" type="CarA" depart="276" fromJunction="J0" toJunction="J8" />
    <trip id="101" type="CarA" depart="276" fromJunction="J0" toJunction="J8" />
    <trip id="102" type="CarA" depart="276" fromJunction="J8" toJunction="J0" />
    <trip id="103" type="CarA" depart="276" fromJunction="J8" toJunction="J0" />
    <trip id="104" type="CarA" depart="276" fromJunction="J0" toJunction="J8" />
    <trip id="105" type="CarA" depart="276" fromJunction="J0" toJunction="J8" />
    <trip id="106" type="CarA" depart="277" fromJunction="J8" toJunction="J0" />
    <trip id="107" type="CarA" depart="277" fromJunction="J8" toJunction="J0" />
    <trip id="108" type="CarA" depart="277" fromJunction="J8" toJunction="J0" />
    <trip id="109" type="CarA" depart="278" fromJunction="J8" toJunction="J0" />
    <trip id="110" type="CarA" depart="279" fromJunction="J8" toJunction="J0" />
    <trip id="111" type="CarA" depart="279" fromJunction="J8" toJunction="J0" />
    <trip id="112" type="CarA" depart="279" fromJunction="J0" toJunction="J8" />
    <trip id="113" type="CarA" depart="280" fromJunction="J8" toJunction="J0" />
    <trip id="114" type="CarA" depart="280" fromJunction="J0" toJunction="J8" />
    <trip id="115" type="CarA" depart="280" fromJunction="J0" toJunction="J8" />
    <trip id="116" type="CarA" depart="280" fromJunction="J0" toJunction="J8" />
    <trip id="117" type="CarA" depart="281" fromJunction="J0" toJunction="J8" />
    <trip id="118" type="CarA" depart="284" fromJunction="J0" toJunction="J8" />
    <trip id="119" type="CarA" depart="284" fromJunction="J8" toJunction="J0" />
    <trip id="120" type="CarA" depart="285" fromJunction="J8" toJunction="J0" />
    <trip id="121" type="CarA" depart="285" fromJunction="J8" toJunction="J0" />
    <trip id="122" type="CarA" depart="288" fromJunction="J8" toJunction="J0" />
    <trip id="123" type="CarA" depart="290" fromJunction="J8" toJunction="J0" />
    <trip id="124" type="CarA" depart="291" fromJunction="J0" toJunction="J8" />
    <trip id="125" type="CarA" depart="291" fromJunction="J8" toJunction="J0" />
    <trip id="126" type="CarA" depart="291" fromJunction="J0" toJunction="J8" />
    <trip id="127" type="CarA" depart="292" fromJunction="J0" toJunction="J8" />
    <trip id="128" type="CarA" depart="292" fromJunction="J0" toJunction="J8" />
    <trip id="129" type="CarA" depart="293" fromJunction="J8" toJunction="J0" />
    <trip id="130" type="CarA" depart="293" fromJunction="J0" toJunction="J8" />
    <trip id="131" type="CarA" depart="294" fromJunction="J0" toJunction="J8" />
    <trip id="132" type="CarA" depart="294" fromJunction="J8" toJunction="J0" />
    <trip id="133" type="CarA" depart="295" fromJunction="J0" toJunction="J8" />
    <trip id="134" type="CarA" depart="295" fromJunction="J0" toJunction="J8" />
    <trip id="135" type="CarA" depart="295" fromJunction="J8" toJunction="J0" />
    <trip id="136" type="CarA" depart="295" fromJunction="J8" toJunction="J0" />
    <trip id="137" type="CarA" depart="296" fromJunction="J8" toJunction="J0" />
    <trip id="138" type="CarA" depart="297" fromJunction="J0" toJunction="J8" />
    <trip id="139" type="CarA" depart="297" fromJunction="J8" toJunction="J0" />
    <trip id="140" type="CarA" depart="297" fromJunction="J0" toJunction="J8" />
    <trip id="141" type="CarA" depart="297" fromJunction="J8" toJunction="J0" />
    <trip id="142" type="CarA" depart="299" fromJunction="J0" toJunction="J8" />
    <trip id="143" type="CarA" depart="299" fromJunction="J0" toJunction="J8" />
    <trip id="144" type="CarA" depart="300" fromJunction="J8" toJunction="J0" />
    <trip id="145" type="CarA" depart="300" fromJunction="J0" toJunction="J8" />
    <trip id="146" type="CarA" depart="300" fromJunction="J0" toJunction="J8" />
    <trip id="147" type="CarA" depart="300" fromJunction="J0" toJunction="J8" />
    <trip id="148" type="CarA" depart="300" fromJunction="J8" toJunction="J0" />
    <trip id="149" type="CarA" depart="301" fromJunction="J8" toJunction="J0" />
    <trip id="150" type="CarA" depart="301" fromJunction="J0" toJunction="J8" />
    <trip id="151" type="CarA" depart="301" fromJunction="J0" toJunction="J8" />
    <trip id="152" type="CarA" depart="303" fromJunction="J0" toJunction="J8" />
    <trip id="153" type="CarA" depart="303" fromJunction="J8" toJunction="J0" />
    <trip id="154" type="CarA" depart="303" fromJunction="J8" toJunction="J0" />
    <trip id="155" type="CarA" depart="303" fromJunction="J0" toJunction="J8" />
    <trip id="156" type="CarA" depart="304" fromJunction="J8" toJunction="J0" />
    <trip id="157" type="CarA" depart="304" fromJunction="J8" toJunction="J0" />
    <trip id="158" type="CarA" depart="304" fromJunction="J0" toJunction="J8" />
    <trip id="159" type="CarA" depart="305" fromJunction="J8" toJunction="J0" />
    <trip id="160" type="CarA" depart="307" fromJunction="J8" toJunction="J0" />
    <trip id="161" type="CarA" depart="307" fromJunction="J8" toJunction="J0" />
    <trip id="162" type="CarA" depart="307" fromJunction="J0" toJunction="J8" />
    <trip id="163" type="CarA" depart="307" fromJunction="J0" toJunction="J8" />
    <trip id="164" type="CarA" depart="308" fromJunction="J0" toJunction="J8" />
    <trip id="165" type="CarA" depart="308" fromJunction="J8" toJunction="J0" />
    <trip id="166" type="CarA" depart="309" fromJunction="J8" toJunction="J0" />
    <trip id="167" type="CarA" depart="309" fromJunction="J8" toJunction="J0" />
    <trip id="168" type="CarA" depart="309" fromJunction="J8" toJunction="J0" />
    <trip id="169" type="CarA" depart="310" fromJunction="J8" toJunction="J0" />
    <trip id="170" type="CarA" depart="311" fromJunction="J8" toJunction="J0" />
    <trip id="171" type="CarA" depart="311" fromJunction="J0" toJunction="J8" />
    <trip id="172" type="CarA" depart="313" fromJunction="J8" toJunction="J0" />
    <trip id="173" type="CarA" depart="313" fromJunction="J0" toJunction="J8" />
    <trip id="174" type="CarA" depart="314" fromJunction="J8" toJunction="J0" />
    <trip id="175" type="CarA" depart="315" fromJunction="J0" toJunction="J8" />
    <trip id="176" type="CarA" depart="316" fromJunction="J0" toJunction="J8" />
    <trip id="177" type="CarA" depart="316" fromJunction="J8" toJunction="J0" />
    <trip id="178" type="CarA" depart="316" fromJunction="J0" toJunction="J8" />
    <trip id="179" type="CarA" depart="316" fromJunction="J0" toJunction="J8" />
    <trip id="180" type="CarA" depart="317" fromJunction="J0" toJunction="J8" />
    <trip id="181" type="CarA" depart="318" fromJunction="J8" toJunction="J0" />
    <trip id="182" type="CarA" depart="318" fromJunction="J0" toJunction="J8" />
    <trip id="183" type="CarA" depart="319" fromJunction="J0" toJunction="J8" />
    <trip id="184" type="CarA" depart="320" fromJunction="J8" toJunction="J0" />
    <trip id="185" type="CarA" depart="320" fromJunction="J0" toJunction="J8" />
    <trip id="186" type="CarA" depart="320" fromJunction="J0" toJunction="J8" />
    <trip id="187" type="CarA" depart="321" fromJunction="J8" toJunction="J0" />
    <trip id="188" type="CarA" depart="321" fromJunction="J8" toJunction="J0" />
    <trip id="189" type="CarA" depart="322" fromJunction="J8" toJunction="J0" />
    <trip id="190" type="CarA" depart="322" fromJunction="J0" toJunction="J8" />
    <trip id="191" type="CarA" depart="322" fromJunction="J0" toJunction="J8" />
    <trip id="192" type="CarA" depart="323" fromJunction="J8" toJunction="J0" />
    <trip id="193" type="CarA" depart="324" fromJunction="J0" toJunction="J8" />
    <trip id="194" type="CarA" depart="324" fromJunction="J0" toJunction="J8" />
    <trip id="195" type="CarA" depart="324" fromJunction="J8" toJunction="J0" />
    <trip id="196" type="CarA" depart="325" fromJunction="J8" toJunction="J0" />
    <trip id="197" type="CarA" depart="325" fromJunction="J0" toJunction="J8" />
    <trip id="198" type="CarA" depart="325" fromJunction="J8" toJunction="J0" />
    <trip id="199" type="CarA" depart="328" fromJunction="J8" toJunction="J0" />
    <trip id="200" type="CarA" depart="328" fromJunction="J0" toJunction="J8" />
    <trip id="201" type="CarA" depart="329" fromJunction="J8" toJunction="J0" />
    <trip id="202" type="CarA" depart="330" fromJunction="J0" toJunction="J8" />
    <trip id="203" type="CarA" depart="330" fromJunction="J8" toJunction="J0" />
    <trip id="204" type="CarA" depart="330" fromJunction="J0" toJunction="J8" />
    <trip id="205" type="CarA" depart="331" fromJunction="J8" toJunction="J0" />
    <trip id="206" type="CarA" depart="331" fromJunction="J0" toJunction="J8" />
    <trip id="207" type="CarA" depart="332" fromJunction="J0" toJunction="J8" />
    <trip id="208" type="CarA" depart="332" fromJunction="J8" toJunction="J0" />
    <trip id="209" type="CarA" depart="334" fromJunction="J0" toJunction="J8" />
    <trip id="210" type="CarA" depart="334" fromJunction="J8" toJunction="J0" />
    <trip id="211" type="CarA" depart="335" fromJunction="J8" toJunction="J0" />
    <trip id="212" type="CarA" depart="336" fromJunction="J8" toJunction="J0" />
    <trip id="213" type="CarA" depart="337" fromJunction="J8" toJunction="J0" />
    <trip id="214" type="CarA" depart="337" fromJunction="J0" toJunction="J8" />
    <trip id="215" type="CarA" depart="337" fromJunction="J8" toJunction="J0" />
    <trip id="216" type="CarA" depart="338" fromJunction="J0" toJunction="J8" />
    <trip id="217" type="CarA" depart="338" fromJunction="J0" toJunction="J8" />
    <trip id="218" type="CarA" depart="338" fromJunction="J8" toJunction="J0" />
    <trip id="219" type="CarA" depart="339" fromJunction="J0" toJunction="J8" />
    <trip id="220" type="CarA" depart="339" fromJunction="J8" toJunction="J0" />
    <trip id="221" type="CarA" depart="341" fromJunction="J0" toJunction="J8" />
    <trip id="222" type="CarA" depart="341" fromJunction="J0" toJunction="J8" />
    <trip id="223" type="CarA" depart="341" fromJunction="J0" toJunction="J8" />
    <trip id="224" type="CarA" depart="341" fromJunction="J8" toJunction="J0" />
    <trip id="225" type="CarA" depart="341" fromJunction="J0" toJunction="J8" />
    <trip id="226" type="CarA" depart="343" fromJunction="J0" toJunction="J8" />
    <trip id="227" type="CarA" depart="344" fromJunction="J0" toJunction="J8" />
    <trip id="228" type="CarA" depart="344" fromJunction="J0" toJunction="J8" />
    <trip id="229" type="CarA" depart="345" fromJunction="J0" toJunction="J8" />
    <trip id="230" type="CarA" depart="345" fromJunction="J0" toJunction="J8" />
    <trip id="231" type="CarA" depart="346" fromJunction="J0" toJunction="J8" />
    <trip id="232" type="CarA" depart="346" fromJunction="J8" toJunction="J0" />
    <trip id="233" type="CarA" depart="346" fromJunction="J0" toJunction="J8" />
    <trip id="234" type="CarA" depart="346" fromJunction="J8" toJunction="J0" />
    <trip id="235" type="CarA" depart="347" fromJunction="J0" toJunction="J8" />
    <trip id="236" type="CarA" depart="347" fromJunction="J0" toJunction="J8" />
    <trip id="237" type="CarA" depart="347" fromJunction="J8" toJunction="J0" />
    <trip id="238" type="CarA" depart="348" fromJunction="J0" toJunction="J8" />
    <trip id="239" type="CarA" depart="349" fromJunction="J8" toJunction="J0" />
    <trip id="240" type="CarA" depart="351" fromJunction="J8" toJunction="J0" />
    <trip id="241" type="CarA" depart="353" fromJunction="J0" toJunction="J8" />
    <trip id="242" type="CarA" depart="356" fromJunction="J8" toJunction="J0" />
    <trip id="243" type="CarA" depart="356" fromJunction="J8" toJunction="J0" />
    <trip id="244" type="CarA" depart="357" fromJunction="J0" toJunction="J8" />
    <trip id="245" type="CarA" depart="357" fromJunction="J0" toJunction="J8" />
    <trip id="246" type="CarA" depart="357" fromJunction="J0" toJunction="J8" />
    <trip id="247" type="CarA" depart="358" fromJunction="J0" toJunction="J8" />
    <trip id="248" type="CarA" depart="359" fromJunction="J8" toJunction="J0" />
    <trip id="249" type="CarA" depart="359" fromJunction="J0" toJunction="J8" />
    <trip id="250" type="CarA" depart="360" fromJunction="J8" toJunction="J0" />
    <trip id="251" type="CarA" depart="360" fromJunction="J8" toJunction="J0" />
    <trip id="252" type="CarA" depart="360" fromJunction="J8" toJunction="J0" />
    <trip id="253" type="CarA" depart="361" fromJunction="J0" toJunction="J8" />
    <trip id="254" type="CarA" depart="362" fromJunction="J0" toJunction="J8" />
    <trip id="255" type="CarA" depart="362" fromJunction="J0" toJunction="J8" />
    <trip id="256" type="CarA" depart="363" fromJunction="J8" toJunction="J0" />
    <trip id="257" type="CarA" depart="364" fromJunction="J8" toJunction="J0" />
    <trip id="258" type="CarA" depart="365" fromJunction="J8" toJunction="J0" />
    <trip id="259" type="CarA" depart="365" fromJunction="J8" toJunction="J0" />
    <trip id="260" type="CarA" depart="365" fromJunction="J8" toJunction="J0" />
    <trip id="261" type="CarA" depart="366" fromJunction="J0" toJunction="J8" />
    <trip id="262" type="CarA" depart="366" fromJunction="J0" toJunction="J8" />
    <trip id="263" type="CarA" depart="366" fromJunction="J0" toJunction="J8" />
    <trip id="264" type="CarA" depart="366" fromJunction="J0" toJunction="J8" />
    <trip id="265" type="CarA" depart="367" fromJunction="J8" toJunction="J0" />
    <trip id="266" type="CarA" depart="367" fromJunction="J0" toJunction="J8" />
    <trip id="267" type="CarA" depart="367" fromJunction="J0" toJunction="J8" />
    <trip id="268" type="CarA" depart="367" fromJunction="J8" toJunction="J0" />
    <trip id="269" type="CarA" depart="367" fromJunction="J0" toJunction="J8" />
    <trip id="270" type="CarA" depart="368" fromJunction="J0" toJunction="J8" />
    <trip id="271" type="CarA" depart="368" fromJunction="J8" toJunction="J0" />
    <trip id="272" type="CarA" depart="369" fromJunction="J0" toJunction="J8" />
    <trip id="273" type="CarA" depart="369" fromJunction="J0" toJunction="J8" />
    <trip id="274" type="CarA" depart="370" fromJunction="J8" toJunction="J0" />
    <trip id="275" type="CarA" depart="370" fromJunction="J0" toJunction="J8" />
    <trip id="276" type="CarA" depart="371" fromJunction="J0" toJunction="J8" />
    <trip id="277" type="CarA" depart="372" fromJunction="J8" toJunction="J0" />
    <trip id="278" type="CarA" depart="372" fromJunction="J8" toJunction="J0" />
    <trip id="279" type="CarA" depart="373" fromJunction="J8" toJunction="J0" />
    <trip id="280" type="CarA" depart="374" fromJunction="J8" toJunction="J0" />
    <trip id="281" type="CarA" depart="374" fromJunction="J0" toJunction="J8" />
    <trip id="282" type="CarA" depart="377" fromJunction="J8" toJunction="J0" />
    <trip id="283" type="CarA" depart="377" fromJunction="J8" toJunction="J0" />
    <trip id="284" type="CarA" depart="377" fromJunction="J8" toJunction="J0" />
    <trip id="285" type="CarA" depart="378" fromJunction="J0" toJunction="J8" />
    <trip id="286" type="CarA" depart="381" fromJunction="J0" toJunction="J8" />
    <trip id="287" type="CarA" depart="381" fromJunction="J8" toJunction="J0" />
    <trip id="288" type="CarA" depart="382" fromJunction="J8" toJunction="J0" />
    <trip id="289" type="CarA" depart="382" fromJunction="J0" toJunction="J8" />
    <trip id="290" type="CarA" depart="384" fromJunction="J0" toJunction="J8" />
    <trip id="291" type="CarA" depart="384" fromJunction="J8" toJunction="J0" />
    <trip id="292" type="CarA" depart="384" fromJunction="J8" toJunction="J0" />
    <trip id="293" type="CarA" depart="385" fromJunction="J0" toJunction="J8" />
    <trip id="294" type="CarA" depart="385" fromJunction="J8" toJunction="J0" />
    <trip id="295" type="CarA" depart="385" fromJunction="J8" toJunction="J0" />
    <trip id="296" type="CarA" depart="386" fromJunction="J0" toJunction="J8" />
    <trip id="297" type="CarA" depart="387" fromJunction="J0" toJunction="J8" />
    <trip id="298" type="CarA" depart="387" fromJunction="J0" toJunction="J8" />
    <trip id="299" type="CarA" depart="388" fromJunction="J0" toJunction="J8" />
    <trip id="300" type="CarA" depart="388" fromJunction="J8" toJunction="J0" />
    <trip id="301" type="CarA" depart="389" fromJunction="J8" toJunction="J0" />
    <trip id="302" type="CarA" depart="389" fromJunction="J0" toJunction="J8" />
    <trip id="303" type="CarA" depart="390" fromJunction="J8" toJunction="J0" />
    <trip id="304" type="CarA" depart="390" fromJunction="J0" toJunction="J8" />
    <trip id="305" type="CarA" depart="390" fromJunction="J0" toJunction="J8" />
    <trip id="306" type="CarA" depart="391" fromJunction="J0" toJunction="J8" />
    <trip id="307" type="CarA" depart="391" fromJunction="J8" toJunction="J0" />
    <trip id="308" type="CarA" depart="391" fromJunction="J8" toJunction="J0" />
    <trip id="309" type="CarA" depart="391" fromJunction="J8" toJunction="J0" />
    <trip id="310" type="CarA" depart="392" fromJunction="J8" toJunction="J0" />
    <trip id="311" type="CarA" depart="392" fromJunction="J8" toJunction="J0" />
    <trip id="312" type="CarA" depart="394" fromJunction="J0" toJunction="J8" />
    <trip id="313" type="CarA" depart="396" fromJunction="J0" toJunction="J8" />
    <trip id="314" type="CarA" depart="397" fromJunction="J0" toJunction="J8" />
    <trip id="315" type="CarA" depart="398" fromJunction="J8" toJunction="J0" />
    <trip id="316" type="CarA" depart="398" fromJunction="J8" toJunction="J0" />
    <trip id="317" type="CarA" depart="398" fromJunction="J0" toJunction="J8" />
    <trip id="318" type="CarA" depart="398" fromJunction="J0" toJunction="J8" />
    <trip id="319" type="CarA" depart="399" fromJunction="J0" toJunction="J8" />
    <trip id="320" type="CarA" depart="400" fromJunction="J8" toJunction="J0" />
    <trip id="321" type="CarA" depart="402" fromJunction="J0" toJunction="J8" />
    <trip id="322" type="CarA" depart="403" fromJunction="J0" toJunction="J8" />
    <trip id="323" type="CarA" depart="404" fromJunction="J0" toJunction="J8" />
    <trip id="324" type="CarA" depart="404" fromJunction="J8" toJunction="J0" />
    <trip id="325" type="CarA" depart="405" fromJunction="J8" toJunction="J0" />
    <trip id="326" type="CarA" depart="405" fromJunction="J8" toJunction="J0" />
    <trip id="327" type="CarA" depart="405" fromJunction="J8" toJunction="J0" />
    <trip id="328" type="CarA" depart="407" fromJunction="J0" toJunction="J8" />
    <trip id="329" type="CarA" depart="408" fromJunction="J8" toJunction="J0" />
    <trip id="330" type="CarA" depart="409" fromJunction="J0" toJunction="J8" />
    <trip id="331" type="CarA" depart="409" fromJunction="J8" toJunction="J0" />
    <trip id="332" type="CarA" depart="410" fromJunction="J0" toJunction="J8" />
    <trip id="333" type="CarA" depart="410" fromJunction="J0" toJunction="J8" />
    <trip id="334" type="CarA" depart="411" fromJunction="J8" toJunction="J0" />
    <trip id="335" type="CarA" depart="412" fromJunction="J0" toJunction="J8" />
    <trip id="336" type="CarA" depart="412" fromJunction="J0" toJunction="J8" />
    <trip id="337" type="CarA" depart="412" fromJunction="J8" toJunction="J0" />
    <trip id="338" type="CarA" depart="412" fromJunction="J0" toJunction="J8" />
    <trip id="339" type="CarA" depart="413" fromJunction="J0" toJunction="J8" />
    <trip id="340" type="CarA" depart="414" fromJunction="J8" toJunction="J0" />
    <trip id="341" type="CarA" depart="415" fromJunction="J8" toJunction="J0" />
    <trip id="342" type="CarA" depart="415" fromJunction="J0" toJunction="J8" />
    <trip id="343" type="CarA" depart="418" fromJunction="J0" toJunction="J8" />
    <trip id="344" type="CarA" depart="421" fromJunction="J8" toJunction="J0" />
    <trip id="345" type="CarA" depart="422" fromJunction="J0" toJunction="J8" />
    <trip id="346" type="CarA" depart="423" fromJunction="J0" toJunction="J8" />
    <trip id="347" type="CarA" depart="423" fromJunction="J0" toJunction="J8" />
    <trip id="348" type="CarA" depart="425" fromJunction="J0" toJunction="J8" />
    <trip id="349" type="CarA" depart="426" fromJunction="J8" toJunction="J0" />
    <trip id="350" type="CarA" depart="427" fromJunction="J8" toJunction="J0" />
    <trip id="351" type="CarA" depart="428" fromJunction="J0" toJunction="J8" />
    <trip id="352" type="CarA" depart="428" fromJunction="J8" toJunction="J0" />
    <trip id="353" type="CarA" depart="428" fromJunction="J0" toJunction="J8" />
    <trip id="354" type="CarA" depart="429" fromJunction="J8" toJunction="J0" />
    <trip id="355" type="CarA" depart="432" fromJunction="J0" toJunction="J8" />
    <trip id="356" type="CarA" depart="432" fromJunction="J8" toJunction="J0" />
    <trip id="357" type="CarA" depart="434" fromJunction="J8" toJunction="J0" />
    <trip id="358" type="CarA" depart="434" fromJunction="J8" toJunction="J0" />
    <trip id="359" type="CarA" depart="435" fromJunction="J8" toJunction="J0" />
    <trip id="360" type="CarA" depart="436" fromJunction="J8" toJunction="J0" />
    <trip id="361" type="CarA" depart="442" fromJunction="J0" toJunction="J8" />
    <trip id="362" type="CarA" depart="444" fromJunction="J8" toJunction="J0" />
    <trip id="363" type="CarA" depart="445" fromJunction="J8" toJunction="J0" />
    <trip id="364" type="CarA" depart="447" fromJunction="J8" toJunction="J0" />
    <trip id="365" type="CarA" depart="455" fromJunction="J0" toJunction="J8" />
    <trip id="366" type="CarA" depart="456" fromJunction="J0" toJunction="J8" />
    <trip id="367" type="CarA" depart="456" fromJunction="J0" toJunction="J8" />
    <trip id="368" type="CarA" depart="457" fromJunction="J0" toJunction="J8" />