<routes>
            <vType id="CarA" length="5" maxSpeed="22" carFollowModel="IDM" actionStepLength="1" tau="1.4" speedDev="0.0" accel="1" decel="2" speedFactor="1.0" minGap="2" delta="4" stepping="1.5"/>
            
    <trip id="0" type="CarA" depart="121" fromJunction="A1" toJunction="E1" />
    <trip id="1" type="CarA" depart="148" fromJunction="E1" toJunction="A2" />
    <trip id="2" type="CarA" depart="168" fromJunction="E3" toJunction="E1" />
    <trip id="3" type="CarA" depart="189" fromJunction="E3" toJunction="E2" />
    <trip id="4" type="CarA" depart="191" fromJunction="E3" toJunction="A1" />
    <trip id="5" type="CarA" depart="197" fromJunction="A3" toJunction="A2" />
    <trip id="6" type="CarA" depart="199" fromJunction="E1" toJunction="A3" />
    <trip id="7" type="CarA" depart="200" fromJunction="A1" toJunction="A3" />
    <trip id="8" type="CarA" depart="205" fromJunction="E1" toJunction="A1" />
    <trip id="9" type="CarA" depart="205" fromJunction="A1" toJunction="A3" />
    <trip id="10" type="CarA" depart="209" fromJunction="A3" toJunction="E3" />
    <trip id="11" type="CarA" depart="212" fromJunction="E3" toJunction="A2" />
    <trip id="12" type="CarA" depart="215" fromJunction="E3" toJunction="E1" />
    <trip id="13" type="CarA" depart="219" fromJunction="A1" toJunction="E2" />
    <trip id="14" type="CarA" depart="221" fromJunction="E1" toJunction="E2" />
    <trip id="15" type="CarA" depart="224" fromJunction="E3" toJunction="A2" />
    <trip id="16" type="CarA" depart="226" fromJunction="E1" toJunction="E2" />
    <trip id="17" type="CarA" depart="227" fromJunction="E2" toJunction="E3" />
    <trip id="18" type="CarA" depart="229" fromJunction="A1" toJunction="A2" />
    <trip id="19" type="CarA" depart="230" fromJunction="A1" toJunction="A2" />
    <trip id="20" type="CarA" depart="231" fromJunction="E3" toJunction="A3" />
    <trip id="21" type="CarA" depart="235" fromJunction="E3" toJunction="A2" />
    <trip id="22" type="CarA" depart="236" fromJunction="E2" toJunction="E1" />
    <trip id="23" type="CarA" depart="236" fromJunction="E2" toJunction="E1" />
    <trip id="24" type="CarA" depart="236" fromJunction="A3" toJunction="E3" />
    <trip id="25" type="CarA" depart="238" fromJunction="A2" toJunction="A1" />
    <trip id="26" type="CarA" depart="241" fromJunction="A2" toJunction="E2" />
    <trip id="27" type="CarA" depart="242" fromJunction="E2" toJunction="E1" />
    <trip id="28" type="CarA" depart="242" fromJunction="E2" toJunction="A2" />
    <trip id="29" type="CarA" depart="243" fromJunction="A3" toJunction="E3" />
    <trip id="30" type="CarA" depart="244" fromJunction="E2" toJunction="A1" />
    <trip id="31" type="CarA" depart="246" fromJunction="A2" toJunction="E2" />
    <trip id="32" type="CarA" depart="247" fromJunction="E2" toJunction="A3" />
    <trip id="33" type="CarA" depart="250" fromJunction="E3" toJunction="E2" />
    <trip id="34" type="CarA" depart="252" fromJunction="A1" toJunction="A2" />
    <trip id="35" type="CarA" depart="257" fromJunction="A3" toJunction="A2" />
    <trip id="36" type="CarA" depart="258" fromJunction="A2" toJunction="E1" />
    <trip id="37" type="CarA" depart="259" fromJunction="A1" toJunction="E1" />
    <trip id="38" type="CarA" depart="259" fromJunction="A1" toJunction="A2" />
    <trip id="39" type="CarA" depart="261" fromJunction="A2" toJunction="E3" />
    <trip id="40" type="CarA" depart="262" fromJunction="A2" toJunction="E3" />
    <trip id="41" type="CarA" depart="262" fromJunction="A2" toJunction="E3" />
    <trip id="42" type="CarA" depart="264" fromJunction="E1" toJunction="E3" />
    <trip id="43" type="CarA" depart="266" fromJunction="E3" toJunction="A1" />
    <trip id="44" type="CarA" depart="266" fromJunction="E1" toJunction="E3" />
    <trip id="45" type="CarA" depart="269" fromJunction="A2" toJunction="E1" />
    <trip id="46" type="CarA" depart="271" fromJunction="A2" toJunction="A1" />
    <trip id="47" type="CarA" depart="271" fromJunction="A3" toJunction="E1" />
    <trip id="48" type="CarA" depart="271" fromJunction="A2" toJunction="A3" />
    <trip id="49" type="CarA" depart="272" fromJunction="E1" toJunction="A2" />
    <trip id="50" type="CarA" depart="275" fromJunction="A1" toJunction="E3" />
    <trip id="51" type="CarA" depart="276" fromJunction="E2" toJunction="A2" />
    <trip id="52" type="CarA" depart="276" fromJunction="E2" toJunction="E3" />
    <trip id="53" type="CarA" depart="277" fromJunction="A2" toJunction="E2" />
    <trip id="54" type="CarA" depart="277" fromJunction="E2" toJunction="A2" />
    <trip id="55" type="CarA" depart="278" fromJunction="E3" toJunction="E1" />
    <trip id="56" type="CarA" depart="279" fromJunction="E2" toJunction="E1" />
    <trip id="57" type="CarA" depart="280" fromJunction="E3" toJunction="A3" />
    <trip id="58" type="CarA" depart="280" fromJunction="A1" toJunction="E1" />
    <trip id="59" type="CarA" depart="280" fromJunction="E3" toJunction="A2" />
    <trip id="60" type="CarA" depart="285" fromJunction="E1" toJunction="A3" />
    <trip id="61" type="CarA" depart="291" fromJunction="A2" toJunction="E1" />
    <trip id="62" type="CarA" depart="291" fromJunction="E1" toJunction="E3" />
    <trip id="63" type="CarA" depart="292" fromJunction="E3" toJunction="E2" />
    <trip id="64" type="CarA" depart="295" fromJunction="E1" toJunction="A1" />
    <trip id="65" type="CarA" depart="295" fromJunction="E3" toJunction="A1" />
    <trip id="66" type="CarA" depart="297" fromJunction="A2" toJunction="A1" />
    <trip id="67" type="CarA" depart="297" fromJunction="E1" toJunction="A3" />
    <trip id="68" type="CarA" depart="297" fromJunction="A1" toJunction="E3" />
    <trip id="69" type="CarA" depart="299" fromJunction="E3" toJunction="E2" />
    <trip id="70" type="CarA" depart="300" fromJunction="E2" toJunction="A2" />
    <trip id="71" type="CarA" depart="300" fromJunction="E2" toJunction="A2" />
    <trip id="72" type="CarA" depart="301" fromJunction="A3" toJunction="E1" />
    <trip id="73" type="CarA" depart="303" fromJunction="A1" toJunction="A2" />
    <trip id="74" type="CarA" depart="303" fromJunction="A2" toJunction="E3" />
    <trip id="75" type="CarA" depart="304" fromJunction="E2" toJunction="A3" />
    <trip id="76" type="CarA" depart="304" fromJunction="E3" toJunction="A2" />
    <trip id="77" type="CarA" depart="307" fromJunction="E1" toJunction="A3" />
    <trip id="78" type="CarA" depart="308" fromJunction="E1" toJunction="A2" />
    <trip id="79" type="CarA" depart="311" fromJunction="A3" toJunction="E1" />
    <trip id="80" type="CarA" depart="316" fromJunction="E2" toJunction="A2" />
    <trip id="81" type="CarA" depart="316" fromJunction="E2" toJunction="A2" />
    <trip id="82" type="CarA" depart="316" fromJunction="A2" toJunction="A3" />
    <trip id="83" type="CarA" depart="318" fromJunction="A3" toJunction="A1" />
    <trip id="84" type="CarA" depart="318" fromJunction="A1" toJunction="E3" />
    <trip id="85" type="CarA" depart="319" fromJunction="E3" toJunction="E1" />
    <trip id="86" type="CarA" depart="320" fromJunction="A1" toJunction="E3" />
    <trip id="87" type="CarA" depart="321" fromJunction="E2" toJunction="E1" />
    <trip id="88" type="CarA" depart="321" fromJunction="A1" toJunction="A3" />
    <trip id="89" type="CarA" depart="325" fromJunction="A3" toJunction="E1" />
    <trip id="90" type="CarA" depart="325" fromJunction="E2" toJunction="E1" />
    <trip id="91" type="CarA" depart="328" fromJunction="E3" toJunction="A2" />
    <trip id="92" type="CarA" depart="330" fromJunction="A1" toJunction="E3" />
    <trip id="93" type="CarA" depart="331" fromJunction="E1" toJunction="E3" />
    <trip id="94" type="CarA" depart="334" fromJunction="E2" toJunction="E1" />
    <trip id="95" type="CarA" depart="335" fromJunction="A3" toJunction="E3" />
    <trip id="96" type="CarA" depart="336" fromJunction="A3" toJunction="A2" />
    <trip id="97" type="CarA" depart="337" fromJunction="A3" toJunction="E3" />
    <trip id="98" type="CarA" depart="338" fromJunction="A3" toJunction="E3" />
    <trip id="99" type="CarA" depart="338" fromJunction="E1" toJunction="A1" />
    <trip id="100" type="CarA" depart="338" fromJunction="E2" toJunction="A3" />
    <trip id="101" type="CarA" depart="339" fromJunction="E2" toJunction="E1" />
    <trip id="102" type="CarA" depart="341" fromJunction="E2" toJunction="A2" />
    <trip id="103" type="CarA" depart="343" fromJunction="E2" toJunction="A2" />
    <trip id="104" type="CarA" depart="344" fromJunction="A3" toJunction="A1" />
    <trip id="105" type="CarA" depart="344" fromJunction="A1" toJunction="E1" />
    <trip id="106" type="CarA" depart="345" fromJunction="E1" toJunction="A2" />
    <trip id="107" type="CarA" depart="346" fromJunction="E2" toJunction="E3" />
    <trip id="108" type="CarA" depart="346" fromJunction="A2" toJunction="E1" />
    <trip id="109" type="CarA" depart="347" fromJunction="A3" toJunction="E1" />
    <trip id="110" type="CarA" depart="348" fromJunction="E3" toJunction="E1" />
    <trip id="111" type="CarA" depart="351" fromJunction="E1" toJunction="A2" />
    <trip id="112" type="CarA" depart="356" fromJunction="A2" toJunction="E1" />
    <trip id="113" type="CarA" depart="358" fromJunction="A2" toJunction="A1" />
    <trip id="114" type="CarA" depart="359" fromJunction="E3" toJunction="A3" />
    <trip id="115" type="CarA" depart="359" fromJunction="E1" toJunction="A2" />
    <trip id="116" type="CarA" depart="360" fromJunction="A1" toJunction="E2" />
    <trip id="117" type="CarA" depart="360" fromJunction="A2" toJunction="A3" />
    <trip id="118" type="CarA" depart="361" fromJunction="E2" toJunction="A3" />
    <trip id="119" type="CarA" depart="363" fromJunction="E3" toJunction="A3" />
    <trip id="120" type="CarA" depart="365" fromJunction="E1" toJunction="A3" />
    <trip id="121" type="CarA" depart="365" fromJunction="E1" toJunction="A2" />
    <trip id="122" type="CarA" depart="366" fromJunction="A3" toJunction="E1" />
    <trip id="123" type="CarA" depart="366" fromJunction="E1" toJunction="A3" />
    <trip id="124" type="CarA" depart="367" fromJunction="A1" toJunction="A3" />
    <trip id="125" type="CarA" depart="367" fromJunction="A2" toJunction="E2" />
    <trip id="126" type="CarA" depart="367" fromJunction="A2" toJunction="E2" />
    <trip id="127" type="CarA" depart="367" fromJunction="E3" toJunction="E2" />
    <trip id="128" type="CarA" depart="368" fromJunction="A3" toJunction="A1" />
    <trip id="129" type="CarA" depart="369" fromJunction="A1" toJunction="A3" />
    <trip id="130" type="CarA" depart="370" fromJunction="E1" toJunction="E2" />
    <trip id="131" type="CarA" depart="370" fromJunction="A2" toJunction="A3" />
    <trip id="132" type="CarA" depart="372" fromJunction="E2" toJunction="A3" />
    <trip id="133" type="CarA" depart="372" fromJunction="E2" toJunction="A1" />
    <trip id="134" type="CarA" depart="377" fromJunction="A1" toJunction="A2" />
    <trip id="135" type="CarA" depart="378" fromJunction="A1" toJunction="E3" />
    <trip id="136" type="CarA" depart="381" fromJunction="E1" toJunction="A2" />
    <trip id="137" type="CarA" depart="385" fromJunction="E3" toJunction="E2" />
    <trip id="138" type="CarA" depart="385" fromJunction="A2" toJunction="E2" />
    <trip id="139" type="CarA" depart="386" fromJunction="A2" toJunction="E1" />
    <trip id="140" type="CarA" depart="388" fromJunction="E2" toJunction="A1" />
    <trip id="141" type="CarA" depart="389" fromJunction="E2" toJunction="E3" />
    <trip id="142" type="CarA" depart="390" fromJunction="E1" toJunction="E3" />
    <trip id="143" type="CarA" depart="390" fromJunction="A1" toJunction="A3" />
    <trip id="144" type="CarA" depart="392" fromJunction="E2" toJunction="E3" />
    <trip id="145" type="CarA" depart="394" fromJunction="E1" toJunction="A2" />
    <trip id="146" type="CarA" depart="397" fromJunction="E1" toJunction="A1" />
    <trip id="147" type="CarA" depart="398" fromJunction="A1" toJunction="E3" />
    <trip id="148" type="CarA" depart="398" fromJunction="E2" toJunction="A3" />
    <trip id="149" type="CarA" depart="400" fromJunction="E1" toJunction="E2" />
    <trip id="150" type="CarA" depart="402" fromJunction="E3" toJunction="A2" />
    <trip id="151" type="CarA" depart="404" fromJunction="E1" toJunction="A3" />
    <trip id="152" type="CarA" depart="405" fromJunction="E2" toJunction="A3" />
    <trip id="153" type="CarA" depart="405" fromJunction="A3" toJunction="A1" />
    <trip id="154" type="CarA" depart="408" fromJunction="E3" toJunction="A2" />
    <trip id="155" type="CarA" depart="409" fromJunction="E3" toJunction="A2" />
    <trip id="156" type="CarA" depart="410" fromJunction="E1" toJunction="A3" />
    <trip id="157" type="CarA" depart="410" fromJunction="A1" toJunction="E3" />
    <trip id="158" type="CarA" depart="412" fromJunction="A3" toJunction="A1" />
    <trip id="159" type="CarA" depart="412" fromJunction="E1" toJunction="A3" />
    <trip id="160" type="CarA" depart="412" fromJunction="E1" toJunction="A3" />
    <trip id="161" type="CarA" depart="413" fromJunction="E2" toJunction="A3" />
    <trip id="162" type="CarA" depart="414" fromJunction="A1" toJunction="E3" />
    <trip id="163" type="CarA" depart="415" fromJunction="A2" toJunction="E1" />
    <trip id="164" type="CarA" depart="415" fromJunction="E3" toJunction="A3" />
    <trip id="165" type="CarA" depart="421" fromJunction="E2" toJunction="E1" />
    <trip id="166" type="CarA" depart="426" fromJunction="E2" toJunction="E1" />
    <trip id="167" type="CarA" depart="427" fromJunction="A3" toJunction="A2" />
    <trip id="168" type="CarA" depart="428" fromJunction="A2" toJunction="E3" />
    <trip id="169" type="CarA" depart="432" fromJunction="A2" toJunction="E1" />
    <trip id="170" type="CarA" depart="432" fromJunction="A1" toJunction="A2" />
    <trip id="171" type="CarA" depart="434" fromJunction="A3" toJunction="A2" />
    <trip id="172" type="CarA" depart="435" fromJunction="A1" toJunction="E2" />
    <trip id="173" type="CarA" depart="436" fromJunction="A1" toJunction="A3" />
    <trip id="174" type="CarA" depart="444" fromJunction="A1" toJunction="E2" />
    <trip id="175" type="CarA" depart="445" fromJunction="A3" toJunction="E2" />
    <trip id="176" type="CarA" depart="455" fromJunction="A1" toJunction="A3" />
    <trip id="177" type="CarA" depart="456" fromJunction="A3" toJunction="A2" />
    <trip id="178" type="CarA" depart="457" fromJunction="A3" toJunction="E3" />
    <trip id="179" type="CarA" depart="457" fromJunction="E1" toJunction="A3" />
    <trip id="180" type="CarA" depart="458" fromJunction="A3" toJunction="E2" />
    <trip id="181" type="CarA" depart="461" fromJunction="A2" toJunction="E3" />
    <trip id="182" type="CarA" depart="462" fromJunction="A1" toJunction="A3" />
    <trip id="183" type="CarA" depart="476" fromJunction="E1" toJunction="A1" />
    <trip id="184" type="CarA" depart="480" fromJunction="A3" toJunction="E3" />
    <trip id="185" type="CarA" depart="482" fromJunction="E1" toJunction="E3" />
    <trip id="186" type="CarA" depart="487" fromJunction="E1" toJunction="A1" />
    <trip id="187" type="CarA" depart="489" fromJunction="E1" toJunction="A1" />
    <trip id="188" type="CarA" depart="489" fromJunction="A1" toJunction="E3" />
    <trip id="189" type="CarA" depart="490" fromJunction="E1" toJunction="A2" />
    <trip id="190" type="CarA" depart="491" fromJunction="E2" toJunction="A3" />
    <trip id="191" type="CarA" depart="493" fromJunction="E1" toJunction="A3" />
    <trip id="192" type="CarA" depart="494" fromJunction="A1" toJunction="A3" />
    <trip id="193" type="CarA" depart="494" fromJunction="A1" toJunction="A2" />
    <trip id="194" type="CarA" depart="495" fromJunction="E1" toJunction="E3" />
    <trip id="195" type="CarA" depart="496" fromJunction="E3" toJunction="A1" />
    <trip id="196" type="CarA" depart="514" fromJunction="A2" toJunction="E3" />
    <trip id="197" type="CarA" depart="519" fromJunction="E2" toJunction="A3" />
    <trip id="198" type="CarA" depart="520" fromJunction="E2" toJunction="E1" />
    <trip id="199" type="CarA" depart="522" fromJunction="E1" toJunction="A2" />
    <trip id="200" type="CarA" depart="522" fromJunction="A1" toJunction="E2" />
    <trip id="201" type="CarA" depart="528" fromJunction="A2" toJunction="E2" />
    <trip id="202" type="CarA" depart="529" fromJunction="E2" toJunction="E1" />
    <trip id="203" type="CarA" depart="532" fromJunction="A3" toJunction="A2" />
    <trip id="204" type="CarA" depart="559" fromJunction="A2" toJunction="E3" />
    <trip id="205" type="CarA" depart="562" fromJunction="A2" toJunction="E3" />
    <trip id="206" type="CarA" depart="567" fromJunction="E2" toJunction="E3" />
    <trip id="207" type="CarA" depart="575" fromJunction="A2" toJunction="E1" />
    <trip id="208" type="CarA" depart="578" fromJunction="E1" toJunction="A3" />
    <trip id="209" type="CarA" depart="581" fromJunction="E1" toJunction="A3" />
    <trip id="210" type="CarA" depart="582" fromJunction="A1" toJunction="E1" />
    <trip id="211" type="CarA" depart="589" fromJunction="A3" toJunction="E1" />
    <trip id="212" type="CarA" depart="596" fromJunction="A1" toJunction="A2" />
    <trip id="213" type="CarA" depart="603" fromJunction="E1" toJunction="E3" />
    <trip id="214" type="CarA" depart="604" fromJunction="E3" toJunction="E2" />
    <trip id="215" type="CarA" depart="608" fromJunction="A2" toJunction="A1" />
    <trip id="216" type="CarA" depart="610" fromJunction="A1" toJunction="E1" />
    <trip id="217" type="CarA" depart="612" fromJunction="E3" toJunction="A3" />
    <trip id="218" type="CarA" depart="615" fromJunction="A3" toJunction="E3" />
    <trip id="219" type="CarA" depart="615" fromJunction="E3" toJunction="A3" />
    <trip id="220" type="CarA" depart="618" fromJunction="A3" toJunction="A2" />
    <trip id="221" type="CarA" depart="619" fromJunction="A3" toJunction="A2" />
    <trip id="222" type="CarA" depart="622" fromJunction="E1" toJunction="A1" />
    <trip id="223" type="CarA" depart="627" fromJunction="E2" toJunction="E3" />
    <trip id="224" type="CarA" depart="628" fromJunction="A1" toJunction="E3" />
    <trip id="225" type="CarA" depart="629" fromJunction="A3" toJunction="E1" />
    <trip id="226" type="CarA" depart="630" fromJunction="A2" toJunction="E1" />
    <trip id="227" type="CarA" depart="631" fromJunction="A2" toJunction="E1" />
    <trip id="228" type="CarA" depart="632" fromJunction="A2" toJunction="A1" />
    <trip id="229" type="CarA" depart="635" fromJunction="A2" toJunction="E3" />
    <trip id="230" type="CarA" depart="638" fromJunction="A2" toJunction="A1" />
    <trip id="231" type="CarA" depart="639" fromJunction="E1" toJunction="A1" />
    <trip id="232" type="CarA" depart="641" fromJunction="E3" toJunction="A3" />
    <trip id="233" type="CarA" depart="649" fromJunction="E2" toJunction="E1" />
    <trip id="234" type="CarA" depart="651" fromJunction="E1" toJunction="E3" />
    <trip id="235" type="CarA" depart="651" fromJunction="A1" toJunction="E1" />
    <trip id="236" type="CarA" depart="651" fromJunction="E3" toJunction="E1" />
    <trip id="237" type="CarA" depart="653" fromJunction="A2" toJunction="A1" />
    <trip id="238" type="CarA" depart="654" fromJunction="E3" toJunction="A3" />
    <trip id="239" type="CarA" depart="654" fromJunction="E1" toJunction="A3" />
    <trip id="240" type="CarA" depart="656" fromJunction="E1" toJunction="A3" />
    <trip id="241" type="CarA" depart="656" fromJunction="E3" toJunction="A2" />
    <trip id="242" type="CarA" depart="657" fromJunction="A3" toJunction="E1" />
    <trip id="243" type="CarA" depart="662" fromJunction="E1" toJunction="A1" />
    <trip id="244" type="CarA" depart="662" fromJunction="A2" toJunction="E1" />
    <trip id="245" type="CarA" depart="663" fromJunction="A2" toJunction="E1" />
    <trip id="246" type="CarA" depart="664" fromJunction="E3" toJunction="A2" />
    <trip id="247" type="CarA" depart="665" fromJunction="A3" toJunction="E1" />
    <trip id="248" type="CarA" depart="665" fromJunction="A3" toJunction="A2" />
    <trip id="249" type="CarA" depart="667" fromJunction="A1" toJunction="A2" />
    <trip id="250" type="CarA" depart="668" fromJunction="E1" toJunction="E2" />
    <trip id="251" type="CarA" depart="668" fromJunction="A3" toJunction="E2" />
    <trip id="252" type="CarA" depart="669" fromJunction="E2" toJunction="A1" />
    <trip id="253" type="CarA" depart="670" fromJunction="A2" toJunction="E3" />
    <trip id="254" type="CarA" depart="670" fromJunction="A1" toJunction="A2" />
    <trip id="255" type="CarA" depart="670" fromJunction="E3" toJunction="E2" />
    <trip id="256" type="CarA" depart="671" fromJunction="A3" toJunction="E2" />
    <trip id="257" type="CarA" depart="674" fromJunction="A1" toJunction="E1" />
    <trip id="258" type="CarA" depart="676" fromJunction="A2" toJunction="E2" />
    <trip id="259" type="CarA" depart="676" fromJunction="E3" toJunction="E1" />
    <trip id="260" type="CarA" depart="682" fromJunction="A3" toJunction="A2" />
    <trip id="261" type="CarA" depart="682" fromJunction="A3" toJunction="A2" />
    <trip id="262" type="CarA" depart="683" fromJunction="A2" toJunction="A3" />
    <trip id="263" type="CarA" depart="684" fromJunction="E3" toJunction="E2" />
    <trip id="264" type="CarA" depart="685" fromJunction="E2" toJunction="E3" />
    <trip id="265" type="CarA" depart="686" fromJunction="A3" toJunction="E1" />
    <trip id="266" type="CarA" depart="687" fromJunction="A2" toJunction="E2" />
    <trip id="267" type="CarA" depart="688" fromJunction="E3" toJunction="E1" />
    <trip id="268" type="CarA" depart="689" fromJunction="A3" toJunction="E2" />
    <trip id="269" type="CarA" depart="690" fromJunction="E1" toJunction="A2" />
    <trip id="270" type="CarA" depart="690" fromJunction="E1" toJunction="A2" />
    <trip id="271" type="CarA" depart="691" fromJunction="A1" toJunction="E3" />
    <trip id="272" type="CarA" depart="691" fromJunction="E1" toJunction="A2" />
    <trip id="273" type="CarA" depart="692" fromJunction="E2" toJunction="A1" />
    <trip id="274" type="CarA" depart="693" fromJunction="A2" toJunction="E3" />
    <trip id="275" type="CarA" depart="693" fromJunction="E2" toJunction="A1" />
    <trip id="276" type="CarA" depart="693" fromJunction="E3" toJunction="E1" />
    <trip id="277" type="CarA" depart="693" fromJunction="E1" toJunction="A3" />
    <trip id="278" type="CarA" depart="695" fromJunction="A3" toJunction="A2" />
    <trip id="279" type="CarA" depart="696" fromJunction="E1" toJunction="A1" />
    <trip id="280" type="CarA" depart="696" fromJunction="E2" toJunction="A3" />
    <trip id="281" type="CarA" depart="697" fromJunction="E2" toJunction="A3" />
    <trip id="282" type="CarA" depart="698" fromJunction="A3" toJunction="E1" />
    <trip id="283" type="CarA" depart="700" fromJunction="A1" toJunction="E1" />
    <trip id="284" type="CarA" depart="700" fromJunction="E3" toJunction="E2" />
    <trip id="285" type="CarA" depart="700" fromJunction="E2" toJunction="A1" />
    <trip id="286" type="CarA" depart="702" fromJunction="E2" toJunction="E1" />
    <trip id="287" type="CarA" depart="703" fromJunction="E3" toJunction="A3" />
    <trip id="288" type="CarA" depart="705" fromJunction="A1" toJunction="A3" />
    <trip id="289" type="CarA" depart="705" fromJunction="E3" toJunction="E2" />
    <trip id="290" type="CarA" depart="707" fromJunction="E2" toJunction="E3" />
    <trip id="291" type="CarA" depart="707" fromJunction="A3" toJunction="E3" />
    <trip id="292" type="CarA" depart="707" fromJunction="E1" toJunction="A2" />
    <trip id="293" type="CarA" depart="708" fromJunction="A1" toJunction="A2" />
    <trip id="294" type="CarA" depart="708" fromJunction="A3" toJunction="E1" />
    <trip id="295" type="CarA" depart="709" fromJunction="A3" toJunction="E1" />
    <trip id="296" type="CarA" depart="710" fromJunction="A3" toJunction="E1" />
    <trip id="297" type="CarA" depart="710" fromJunction="A3" toJunction="A1" />
    <trip id="298" type="CarA" depart="710" fromJunction="A1" toJunction="E1" />
    <trip id="299" type="CarA" depart="711" fromJunction="E2" toJunction="E3" />
    <trip id="300" type="CarA" depart="711" fromJunction="E3" toJunction="A1" />
    <trip id="301" type="CarA" depart="711" fromJunction="E2" toJunction="A2" />
    <trip id="302" type="CarA" depart="711" fromJunction="E1" toJunction="E3" />
    <trip id="303" type="CarA" depart="712" fromJunction="A2" toJunction="E2" />
    <trip id="304" type="CarA" depart="712" fromJunction="E3" toJunction="A3" />
    <trip id="305" type="CarA" depart="713" fromJunction="E1" toJunction="E3" />
    <trip id="306" type="CarA" depart="713" fromJunction="A2" toJunction="E3" />
    <trip id="307" type="CarA" depart="715" fromJunction="A2" toJunction="A3" />
    <trip id="308" type="CarA" depart="716" fromJunction="E1" toJunction="A2" />
    <trip id="309" type="CarA" depart="717" fromJunction="E3" toJunction="E1" />
    <trip id="310" type="CarA" depart="717" fromJunction="A3" toJunction="E3" />
    <trip id="311" type="CarA" depart="717" fromJunction="E2" toJunction="E3" />
    <trip id="312" type="CarA" depart="717" fromJunction="E2" toJunction="E1" />
    <trip id="313" type="CarA" depart="717" fromJunction="A3" toJunction="E2" />
    <trip id="314" type="CarA" depart="718" fromJunction="A3" toJunction="A2" />
    <trip id="315" type="CarA" depart="719" fromJunction="A1" toJunction="E1" />
    <trip id="316" type="CarA" depart="720" fromJunction="A1" toJunction="E2" />
    <trip id="317" type="CarA" depart="721" fromJunction="E2" toJunction="E1" />
    <trip id="318" type="CarA" depart="721" fromJunction="E2" toJunction="E3" />
    <trip id="319" type="CarA" depart="721" fromJunction="A1" toJunction="E3" />
    <trip id="320" type="CarA" depart="723" fromJunction="E1" toJunction="A3" />
    <trip id="321" type="CarA" depart="724" fromJunction="A1" toJunction="E3" />
    <trip id="322" type="CarA" depart="724" fromJunction="E1" toJunction="A1" />
    <trip id="323" type="CarA" depart="724" fromJunction="A1" toJunction="E1" />
    <trip id="324" type="CarA" depart="724" fromJunction="E1" toJunction="E2" />
    <trip id="325" type="CarA" depart="725" fromJunction="E2" toJunction="E3" />
    <trip id="326" type="CarA" depart="726" fromJunction="E2" toJunction="E3" />
    <trip id="327" type="CarA" depart="726" fromJunction="E3" toJunction="E2" />
    <trip id="328" type="CarA" depart="727" fromJunction="A1" toJunction="E1" />
    <trip id="329" type="CarA" depart="727" fromJunction="E2" toJunction="A3" />
    <trip id="330" type="CarA" depart="728" fromJunction="A3" toJunction="E2" />
    <trip id="331" type="CarA" depart="729" fromJunction="A3" toJunction="E2" />
    <trip id="332" type="CarA" depart="730" fromJunction="E1" toJunction="E2" />
    <trip id="333" type="CarA" depart="730" fromJunction="A1" toJunction="A2" />
    <trip id="334" type="CarA" depart="731" fromJunction="E3" toJunction="A2" />
    <trip id="335" type="CarA" depart="731" fromJunction="A2" toJunction="E3" />
    <trip id="336" type="CarA" depart="733" fromJunction="E1" toJunction="A1" />
    <trip id="337" type="CarA" depart="734" fromJunction="A3" toJunction="E1" />
    <trip id="338" type="CarA" depart="735" fromJunction="A2" toJunction="E3" />
    <trip id="339" type="CarA" depart="737" fromJunction="E2" toJunction="A3" />
    <trip id="340" type="CarA" depart="737" fromJunction="A2" toJunction="A3" />
    <trip id="341" type="CarA" depart="739" fromJunction="A2" toJunction="A3" />
    <trip id="342" type="CarA" depart="739" fromJunction="A2" toJunction="E2" />
    <trip id="343" type="CarA" depart="739" fromJunction="E1" toJunction="E2" />
    <trip id="344" type="CarA" depart="739" fromJunction="E3" toJunction="E2" />
    <trip id="345" type="CarA" depart="740" fromJunction="A2" toJunction="A1" />
    <trip id="346" type="CarA" depart="740" fromJunction="E1" toJunction="E2" />
    <trip id="347" type="CarA" depart="740" fromJunction="E1" toJunction="A2" />
    <trip id="348" type="CarA" depart="741" fromJunction="A1" toJunction="E1" />
    <trip id="349" type="CarA" depart="741" fromJunction="E2" toJunction="E1" />
    <trip id="350" type="CarA" depart="741" fromJunction="A2" toJunction="A3" />
    <trip id="351" type="CarA" depart="742" fromJunction="A2" toJunction="A1" />
    <trip id="352" type="CarA" depart="743" fromJunction="E1" toJunction="A1" />
    <trip id="353" type="CarA" depart="744" fromJunction="E1" toJunction="A3" />
    <trip id="354" type="CarA" depart="744" fromJunction="E1" toJunction="E2" />
    <trip id="355" type="CarA" depart="745" fromJunction="A1" toJunction="A2" />
    <trip id="356" type="CarA" depart="746" fromJunction="A3" toJunction="A1" />
    <trip id="357" type="CarA" depart="746" fromJunction="E2" toJunction="E1" />
    <trip id="358" type="CarA" depart="746" fromJunction="E3" toJunction="E2" />
    <trip id="359" type="CarA" depart="746" fromJunction="A1" toJunction="E1" />
    <trip id="360" type="CarA" depart="746" fromJunction="A3" toJunction="E2" />
    <trip id="361" type="CarA" depart="748" fromJunction="E2" toJunction="A1" />
    <trip id="362" type="CarA" depart="749" fromJunction="E2" toJunction="A2" />
    <trip id="363" type="CarA" depart="749" fromJunction="A1" toJunction="E1" />
    <trip id="364" type="CarA" depart="750" fromJunction="A1" toJunction="E3" />
    <trip id="365" type="CarA" depart="750" fromJunction="A3" toJunction="A2" />
    <trip id="366" type="CarA" depart="753" fromJunction="A1" toJunction="E2" />
    <trip id="367" type="CarA" depart="754" fromJunction="A1" toJunction="A3" />
    <trip id="368" type="CarA" depart="755" fromJunction="A2" toJunction="E3" />