<?xml version="1.0" encoding="UTF-8"?>

<!-- generated on 2024-04-01 11:02:14 by Eclipse SUMO netedit Version 1.19.0
<configuration xmlns:xsi="http://www.w3.org/2001/XMLSchema-instance" xsi:noNamespaceSchemaLocation="http://sumo.dlr.de/xsd/neteditConfiguration.xsd">

    <input>
        <sumo-net-file value="C:\Users\XT\Desktop\Capstone_AIforTraffic\Spring Week 8\road_network\41grid.net.xml"/>
    </input>

    <output>
        <output-file value="C:\Users\XT\Desktop\Capstone_AIforTraffic\Spring Week 8\road_network\41grid.net.xml"/>
    </output>

    <processing>
        <geometry.min-radius.fix.railways value="false"/>
        <geometry.max-grade.fix value="false"/>
        <offset.disable-normalization value="true"/>
        <lefthand value="0"/>
    </processing>

    <junctions>
        <no-turnarounds value="true"/>
        <junctions.corner-detail value="5"/>
        <junctions.limit-turn-speed value="5.50"/>
        <rectangular-lane-cut value="0"/>
    </junctions>

    <pedestrian>
        <walkingareas value="0"/>
    </pedestrian>

</configuration>
-->

<net version="1.16" junctionCornerDetail="5" limitTurnSpeed="5.50" xmlns:xsi="http://www.w3.org/2001/XMLSchema-instance" xsi:noNamespaceSchemaLocation="http://sumo.dlr.de/xsd/net_file.xsd">

    <location netOffset="0.00,0.00" convBoundary="0.00,-100.00,500.00,100.00" origBoundary="-10000000000.00,-10000000000.00,10000000000.00,10000000000.00" projParameter="!"/>

    <edge id=":J1_0" function="internal">
        <lane id=":J1_0_0" index="0" speed="6.51" length="9.03" shape="92.00,13.60 91.65,11.15 90.60,9.40 88.85,8.35 86.40,8.00"/>
    </edge>
    <edge id=":J1_1" function="internal">
        <lane id=":J1_1_0" index="0" speed="13.89" length="27.20" shape="95.20,13.60 95.20,-13.60"/>
    </edge>
    <edge id=":J1_2" function="internal">
        <lane id=":J1_2_0" index="0" speed="10.36" length="12.07" shape="98.40,13.60 99.35,6.95 102.10,2.36"/>
    </edge>
    <edge id=":J1_12" function="internal">
        <lane id=":J1_12_0" index="0" speed="10.36" length="12.44" shape="102.10,2.36 102.20,2.20 106.95,-0.65 113.60,-1.60"/>
    </edge>
    <edge id=":J1_3" function="internal">
        <lane id=":J1_3_0" index="0" speed="6.51" length="9.03" shape="113.60,8.00 111.15,8.35 109.40,9.40 108.35,11.15 108.00,13.60"/>
    </edge>
    <edge id=":J1_4" function="internal">
        <lane id=":J1_4_0" index="0" speed="13.89" length="27.20" shape="113.60,4.80 86.40,4.80"/>
    </edge>
    <edge id=":J1_5" function="internal">
        <lane id=":J1_5_0" index="0" speed="10.36" length="12.07" shape="113.60,1.60 106.95,0.65 102.36,-2.10"/>
    </edge>
    <edge id=":J1_13" function="internal">
        <lane id=":J1_13_0" index="0" speed="10.36" length="12.44" shape="102.36,-2.10 102.20,-2.20 99.35,-6.95 98.40,-13.60"/>
    </edge>
    <edge id=":J1_6" function="internal">
        <lane id=":J1_6_0" index="0" speed="6.51" length="9.03" shape="108.00,-13.60 108.35,-11.15 109.40,-9.40 111.15,-8.35 113.60,-8.00"/>
    </edge>
    <edge id=":J1_7" function="internal">
        <lane id=":J1_7_0" index="0" speed="13.89" length="27.20" shape="104.80,-13.60 104.80,13.60"/>
    </edge>
    <edge id=":J1_8" function="internal">
        <lane id=":J1_8_0" index="0" speed="10.36" length="12.07" shape="101.60,-13.60 100.65,-6.95 97.90,-2.36"/>
    </edge>
    <edge id=":J1_14" function="internal">
        <lane id=":J1_14_0" index="0" speed="10.36" length="12.44" shape="97.90,-2.36 97.80,-2.20 93.05,0.65 86.40,1.60"/>
    </edge>
    <edge id=":J1_9" function="internal">
        <lane id=":J1_9_0" index="0" speed="6.51" length="9.03" shape="86.40,-8.00 88.85,-8.35 90.60,-9.40 91.65,-11.15 92.00,-13.60"/>
    </edge>
    <edge id=":J1_10" function="internal">
        <lane id=":J1_10_0" index="0" speed="13.89" length="27.20" shape="86.40,-4.80 113.60,-4.80"/>
    </edge>
    <edge id=":J1_11" function="internal">
        <lane id=":J1_11_0" index="0" speed="10.36" length="12.07" shape="86.40,-1.60 93.05,-0.65 97.64,2.10"/>
    </edge>
    <edge id=":J1_15" function="internal">
        <lane id=":J1_15_0" index="0" speed="10.36" length="12.44" shape="97.64,2.10 97.80,2.20 100.65,6.95 101.60,13.60"/>
    </edge>
    <edge id=":J2_0" function="internal">
        <lane id=":J2_0_0" index="0" speed="6.51" length="9.03" shape="192.00,13.60 191.65,11.15 190.60,9.40 188.85,8.35 186.40,8.00"/>
    </edge>
    <edge id=":J2_1" function="internal">
        <lane id=":J2_1_0" index="0" speed="13.89" length="27.20" shape="195.20,13.60 195.20,-13.60"/>
    </edge>
    <edge id=":J2_2" function="internal">
        <lane id=":J2_2_0" index="0" speed="10.36" length="12.07" shape="198.40,13.60 199.35,6.95 202.10,2.36"/>
    </edge>
    <edge id=":J2_12" function="internal">
        <lane id=":J2_12_0" index="0" speed="10.36" length="12.44" shape="202.10,2.36 202.20,2.20 206.95,-0.65 213.60,-1.60"/>
    </edge>
    <edge id=":J2_3" function="internal">
        <lane id=":J2_3_0" index="0" speed="6.51" length="9.03" shape="213.60,8.00 211.15,8.35 209.40,9.40 208.35,11.15 208.00,13.60"/>
    </edge>
    <edge id=":J2_4" function="internal">
        <lane id=":J2_4_0" index="0" speed="13.89" length="27.20" shape="213.60,4.80 186.40,4.80"/>
    </edge>
    <edge id=":J2_5" function="internal">
        <lane id=":J2_5_0" index="0" speed="10.36" length="12.07" shape="213.60,1.60 206.95,0.65 202.36,-2.10"/>
    </edge>
    <edge id=":J2_13" function="internal">
        <lane id=":J2_13_0" index="0" speed="10.36" length="12.44" shape="202.36,-2.10 202.20,-2.20 199.35,-6.95 198.40,-13.60"/>
    </edge>
    <edge id=":J2_6" function="internal">
        <lane id=":J2_6_0" index="0" speed="6.51" length="9.03" shape="208.00,-13.60 208.35,-11.15 209.40,-9.40 211.15,-8.35 213.60,-8.00"/>
    </edge>
    <edge id=":J2_7" function="internal">
        <lane id=":J2_7_0" index="0" speed="13.89" length="27.20" shape="204.80,-13.60 204.80,13.60"/>
    </edge>
    <edge id=":J2_8" function="internal">
        <lane id=":J2_8_0" index="0" speed="10.36" length="12.07" shape="201.60,-13.60 200.65,-6.95 197.90,-2.36"/>
    </edge>
    <edge id=":J2_14" function="internal">
        <lane id=":J2_14_0" index="0" speed="10.36" length="12.44" shape="197.90,-2.36 197.80,-2.20 193.05,0.65 186.40,1.60"/>
    </edge>
    <edge id=":J2_9" function="internal">
        <lane id=":J2_9_0" index="0" speed="6.51" length="9.03" shape="186.40,-8.00 188.85,-8.35 190.60,-9.40 191.65,-11.15 192.00,-13.60"/>
    </edge>
    <edge id=":J2_10" function="internal">
        <lane id=":J2_10_0" index="0" speed="13.89" length="27.20" shape="186.40,-4.80 213.60,-4.80"/>
    </edge>
    <edge id=":J2_11" function="internal">
        <lane id=":J2_11_0" index="0" speed="10.36" length="12.07" shape="186.40,-1.60 193.05,-0.65 197.64,2.10"/>
    </edge>
    <edge id=":J2_15" function="internal">
        <lane id=":J2_15_0" index="0" speed="10.36" length="12.44" shape="197.64,2.10 197.80,2.20 200.65,6.95 201.60,13.60"/>
    </edge>
    <edge id=":J3_0" function="internal">
        <lane id=":J3_0_0" index="0" speed="6.51" length="9.03" shape="292.00,13.60 291.65,11.15 290.60,9.40 288.85,8.35 286.40,8.00"/>
    </edge>
    <edge id=":J3_1" function="internal">
        <lane id=":J3_1_0" index="0" speed="13.89" length="27.20" shape="295.20,13.60 295.20,-13.60"/>
    </edge>
    <edge id=":J3_2" function="internal">
        <lane id=":J3_2_0" index="0" speed="10.36" length="12.07" shape="298.40,13.60 299.35,6.95 302.10,2.36"/>
    </edge>
    <edge id=":J3_12" function="internal">
        <lane id=":J3_12_0" index="0" speed="10.36" length="12.44" shape="302.10,2.36 302.20,2.20 306.95,-0.65 313.60,-1.60"/>
    </edge>
    <edge id=":J3_3" function="internal">
        <lane id=":J3_3_0" index="0" speed="6.51" length="9.03" shape="313.60,8.00 311.15,8.35 309.40,9.40 308.35,11.15 308.00,13.60"/>
    </edge>
    <edge id=":J3_4" function="internal">
        <lane id=":J3_4_0" index="0" speed="13.89" length="27.20" shape="313.60,4.80 286.40,4.80"/>
    </edge>
    <edge id=":J3_5" function="internal">
        <lane id=":J3_5_0" index="0" speed="10.36" length="12.07" shape="313.60,1.60 306.95,0.65 302.36,-2.10"/>
    </edge>
    <edge id=":J3_13" function="internal">
        <lane id=":J3_13_0" index="0" speed="10.36" length="12.44" shape="302.36,-2.10 302.20,-2.20 299.35,-6.95 298.40,-13.60"/>
    </edge>
    <edge id=":J3_6" function="internal">
        <lane id=":J3_6_0" index="0" speed="6.51" length="9.03" shape="308.00,-13.60 308.35,-11.15 309.40,-9.40 311.15,-8.35 313.60,-8.00"/>
    </edge>
    <edge id=":J3_7" function="internal">
        <lane id=":J3_7_0" index="0" speed="13.89" length="27.20" shape="304.80,-13.60 304.80,13.60"/>
    </edge>
    <edge id=":J3_8" function="internal">
        <lane id=":J3_8_0" index="0" speed="10.36" length="12.07" shape="301.60,-13.60 300.65,-6.95 297.90,-2.36"/>
    </edge>
    <edge id=":J3_14" function="internal">
        <lane id=":J3_14_0" index="0" speed="10.36" length="12.44" shape="297.90,-2.36 297.80,-2.20 293.05,0.65 286.40,1.60"/>
    </edge>
    <edge id=":J3_9" function="internal">
        <lane id=":J3_9_0" index="0" speed="6.51" length="9.03" shape="286.40,-8.00 288.85,-8.35 290.60,-9.40 291.65,-11.15 292.00,-13.60"/>
    </edge>
    <edge id=":J3_10" function="internal">
        <lane id=":J3_10_0" index="0" speed="13.89" length="27.20" shape="286.40,-4.80 313.60,-4.80"/>
    </edge>
    <edge id=":J3_11" function="internal">
        <lane id=":J3_11_0" index="0" speed="10.36" length="12.07" shape="286.40,-1.60 293.05,-0.65 297.64,2.10"/>
    </edge>
    <edge id=":J3_15" function="internal">
        <lane id=":J3_15_0" index="0" speed="10.36" length="12.44" shape="297.64,2.10 297.80,2.20 300.65,6.95 301.60,13.60"/>
    </edge>
    <edge id=":J8_0" function="internal">
        <lane id=":J8_0_0" index="0" speed="6.51" length="9.03" shape="392.00,13.60 391.65,11.15 390.60,9.40 388.85,8.35 386.40,8.00"/>
    </edge>
    <edge id=":J8_1" function="internal">
        <lane id=":J8_1_0" index="0" speed="13.89" length="27.20" shape="395.20,13.60 395.20,-13.60"/>
    </edge>
    <edge id=":J8_2" function="internal">
        <lane id=":J8_2_0" index="0" speed="10.36" length="12.07" shape="398.40,13.60 399.35,6.95 402.10,2.36"/>
    </edge>
    <edge id=":J8_12" function="internal">
        <lane id=":J8_12_0" index="0" speed="10.36" length="12.44" shape="402.10,2.36 402.20,2.20 406.95,-0.65 413.60,-1.60"/>
    </edge>
    <edge id=":J8_3" function="internal">
        <lane id=":J8_3_0" index="0" speed="6.51" length="9.03" shape="413.60,8.00 411.15,8.35 409.40,9.40 408.35,11.15 408.00,13.60"/>
    </edge>
    <edge id=":J8_4" function="internal">
        <lane id=":J8_4_0" index="0" speed="13.89" length="27.20" shape="413.60,4.80 386.40,4.80"/>
    </edge>
    <edge id=":J8_5" function="internal">
        <lane id=":J8_5_0" index="0" speed="10.36" length="12.07" shape="413.60,1.60 406.95,0.65 402.36,-2.10"/>
    </edge>
    <edge id=":J8_13" function="internal">
        <lane id=":J8_13_0" index="0" speed="10.36" length="12.44" shape="402.36,-2.10 402.20,-2.20 399.35,-6.95 398.40,-13.60"/>
    </edge>
    <edge id=":J8_6" function="internal">
        <lane id=":J8_6_0" index="0" speed="6.51" length="9.03" shape="408.00,-13.60 408.35,-11.15 409.40,-9.40 411.15,-8.35 413.60,-8.00"/>
    </edge>
    <edge id=":J8_7" function="internal">
        <lane id=":J8_7_0" index="0" speed="13.89" length="27.20" shape="404.80,-13.60 404.80,13.60"/>
    </edge>
    <edge id=":J8_8" function="internal">
        <lane id=":J8_8_0" index="0" speed="10.36" length="12.07" shape="401.60,-13.60 400.65,-6.95 397.90,-2.36"/>
    </edge>
    <edge id=":J8_14" function="internal">
        <lane id=":J8_14_0" index="0" speed="10.36" length="12.44" shape="397.90,-2.36 397.80,-2.20 393.05,0.65 386.40,1.60"/>
    </edge>
    <edge id=":J8_9" function="internal">
        <lane id=":J8_9_0" index="0" speed="6.51" length="9.03" shape="386.40,-8.00 388.85,-8.35 390.60,-9.40 391.65,-11.15 392.00,-13.60"/>
    </edge>
    <edge id=":J8_10" function="internal">
        <lane id=":J8_10_0" index="0" speed="13.89" length="27.20" shape="386.40,-4.80 413.60,-4.80"/>
    </edge>
    <edge id=":J8_11" function="internal">
        <lane id=":J8_11_0" index="0" speed="10.36" length="12.07" shape="386.40,-1.60 393.05,-0.65 397.64,2.10"/>
    </edge>
    <edge id=":J8_15" function="internal">
        <lane id=":J8_15_0" index="0" speed="10.36" length="12.44" shape="397.64,2.10 397.80,2.20 400.65,6.95 401.60,13.60"/>
    </edge>

    <edge id="-E0" from="J1" to="J0" priority="-1">
        <lane id="-E0_0" index="0" speed="13.89" length="86.40" shape="86.40,8.00 0.00,8.00"/>
        <lane id="-E0_1" index="1" speed="13.89" length="86.40" shape="86.40,4.80 0.00,4.80"/>
        <lane id="-E0_2" index="2" speed="13.89" length="86.40" shape="86.40,1.60 0.00,1.60"/>
    </edge>
    <edge id="-E1" from="J2" to="J1" priority="-1">
        <lane id="-E1_0" index="0" speed="13.89" length="72.80" shape="186.40,8.00 113.60,8.00"/>
        <lane id="-E1_1" index="1" speed="13.89" length="72.80" shape="186.40,4.80 113.60,4.80"/>
        <lane id="-E1_2" index="2" speed="13.89" length="72.80" shape="186.40,1.60 113.60,1.60"/>
    </edge>
    <edge id="-E10" from="J11" to="J8" priority="-1">
        <lane id="-E10_0" index="0" speed="13.89" length="86.40" shape="500.00,8.00 413.60,8.00"/>
        <lane id="-E10_1" index="1" speed="13.89" length="86.40" shape="500.00,4.80 413.60,4.80"/>
        <lane id="-E10_2" index="2" speed="13.89" length="86.40" shape="500.00,1.60 413.60,1.60"/>
    </edge>
    <edge id="-E11" from="J12" to="J8" priority="-1">
        <lane id="-E11_0" index="0" speed="13.89" length="86.40" shape="392.00,100.00 392.00,13.60"/>
        <lane id="-E11_1" index="1" speed="13.89" length="86.40" shape="395.20,100.00 395.20,13.60"/>
        <lane id="-E11_2" index="2" speed="13.89" length="86.40" shape="398.40,100.00 398.40,13.60"/>
    </edge>
    <edge id="-E12" from="J13" to="J8" priority="-1">
        <lane id="-E12_0" index="0" speed="13.89" length="86.40" shape="408.00,-100.00 408.00,-13.60"/>
        <lane id="-E12_1" index="1" speed="13.89" length="86.40" shape="404.80,-100.00 404.80,-13.60"/>
        <lane id="-E12_2" index="2" speed="13.89" length="86.40" shape="401.60,-100.00 401.60,-13.60"/>
    </edge>
    <edge id="-E2" from="J3" to="J2" priority="-1">
        <lane id="-E2_0" index="0" speed="13.89" length="72.80" shape="286.40,8.00 213.60,8.00"/>
        <lane id="-E2_1" index="1" speed="13.89" length="72.80" shape="286.40,4.80 213.60,4.80"/>
        <lane id="-E2_2" index="2" speed="13.89" length="72.80" shape="286.40,1.60 213.60,1.60"/>
    </edge>
    <edge id="-E3" from="J4" to="J1" priority="-1">
        <lane id="-E3_0" index="0" speed="13.89" length="86.40" shape="92.00,100.00 92.00,13.60"/>
        <lane id="-E3_1" index="1" speed="13.89" length="86.40" shape="95.20,100.00 95.20,13.60"/>
        <lane id="-E3_2" index="2" speed="13.89" length="86.40" shape="98.40,100.00 98.40,13.60"/>
    </edge>
    <edge id="-E4" from="J5" to="J1" priority="-1">
        <lane id="-E4_0" index="0" speed="13.89" length="86.40" shape="108.00,-100.00 108.00,-13.60"/>
        <lane id="-E4_1" index="1" speed="13.89" length="86.40" shape="104.80,-100.00 104.80,-13.60"/>
        <lane id="-E4_2" index="2" speed="13.89" length="86.40" shape="101.60,-100.00 101.60,-13.60"/>
    </edge>
    <edge id="-E5" from="J6" to="J2" priority="-1">
        <lane id="-E5_0" index="0" speed="13.89" length="86.40" shape="192.00,100.00 192.00,13.60"/>
        <lane id="-E5_1" index="1" speed="13.89" length="86.40" shape="195.20,100.00 195.20,13.60"/>
        <lane id="-E5_2" index="2" speed="13.89" length="86.40" shape="198.40,100.00 198.40,13.60"/>
    </edge>
    <edge id="-E6" from="J7" to="J2" priority="-1">
        <lane id="-E6_0" index="0" speed="13.89" length="86.40" shape="208.00,-100.00 208.00,-13.60"/>
        <lane id="-E6_1" index="1" speed="13.89" length="86.40" shape="204.80,-100.00 204.80,-13.60"/>
        <lane id="-E6_2" index="2" speed="13.89" length="86.40" shape="201.60,-100.00 201.60,-13.60"/>
    </edge>
    <edge id="-E7" from="J8" to="J3" priority="-1">
        <lane id="-E7_0" index="0" speed="13.89" length="72.80" shape="386.40,8.00 313.60,8.00"/>
        <lane id="-E7_1" index="1" speed="13.89" length="72.80" shape="386.40,4.80 313.60,4.80"/>
        <lane id="-E7_2" index="2" speed="13.89" length="72.80" shape="386.40,1.60 313.60,1.60"/>
    </edge>
    <edge id="-E8" from="J9" to="J3" priority="-1">
        <lane id="-E8_0" index="0" speed="13.89" length="86.40" shape="292.00,100.00 292.00,13.60"/>
        <lane id="-E8_1" index="1" speed="13.89" length="86.40" shape="295.20,100.00 295.20,13.60"/>
        <lane id="-E8_2" index="2" speed="13.89" length="86.40" shape="298.40,100.00 298.40,13.60"/>
    </edge>
    <edge id="-E9" from="J10" to="J3" priority="-1">
        <lane id="-E9_0" index="0" speed="13.89" length="86.40" shape="308.00,-100.00 308.00,-13.60"/>
        <lane id="-E9_1" index="1" speed="13.89" length="86.40" shape="304.80,-100.00 304.80,-13.60"/>
        <lane id="-E9_2" index="2" speed="13.89" length="86.40" shape="301.60,-100.00 301.60,-13.60"/>
    </edge>
    <edge id="E0" from="J0" to="J1" priority="-1">
        <lane id="E0_0" index="0" speed="13.89" length="86.40" shape="0.00,-8.00 86.40,-8.00"/>
        <lane id="E0_1" index="1" speed="13.89" length="86.40" shape="0.00,-4.80 86.40,-4.80"/>
        <lane id="E0_2" index="2" speed="13.89" length="86.40" shape="0.00,-1.60 86.40,-1.60"/>
    </edge>
    <edge id="E1" from="J1" to="J2" priority="-1">
        <lane id="E1_0" index="0" speed="13.89" length="72.80" shape="113.60,-8.00 186.40,-8.00"/>
        <lane id="E1_1" index="1" speed="13.89" length="72.80" shape="113.60,-4.80 186.40,-4.80"/>
        <lane id="E1_2" index="2" speed="13.89" length="72.80" shape="113.60,-1.60 186.40,-1.60"/>
    </edge>
    <edge id="E10" from="J8" to="J11" priority="-1">
        <lane id="E10_0" index="0" speed="13.89" length="86.40" shape="413.60,-8.00 500.00,-8.00"/>
        <lane id="E10_1" index="1" speed="13.89" length="86.40" shape="413.60,-4.80 500.00,-4.80"/>
        <lane id="E10_2" index="2" speed="13.89" length="86.40" shape="413.60,-1.60 500.00,-1.60"/>
    </edge>
    <edge id="E11" from="J8" to="J12" priority="-1">
        <lane id="E11_0" index="0" speed="13.89" length="86.40" shape="408.00,13.60 408.00,100.00"/>
        <lane id="E11_1" index="1" speed="13.89" length="86.40" shape="404.80,13.60 404.80,100.00"/>
        <lane id="E11_2" index="2" speed="13.89" length="86.40" shape="401.60,13.60 401.60,100.00"/>
    </edge>
    <edge id="E12" from="J8" to="J13" priority="-1">
        <lane id="E12_0" index="0" speed="13.89" length="86.40" shape="392.00,-13.60 392.00,-100.00"/>
        <lane id="E12_1" index="1" speed="13.89" length="86.40" shape="395.20,-13.60 395.20,-100.00"/>
        <lane id="E12_2" index="2" speed="13.89" length="86.40" shape="398.40,-13.60 398.40,-100.00"/>
    </edge>
    <edge id="E2" from="J2" to="J3" priority="-1">
        <lane id="E2_0" index="0" speed="13.89" length="72.80" shape="213.60,-8.00 286.40,-8.00"/>
        <lane id="E2_1" index="1" speed="13.89" length="72.80" shape="213.60,-4.80 286.40,-4.80"/>
        <lane id="E2_2" index="2" speed="13.89" length="72.80" shape="213.60,-1.60 286.40,-1.60"/>
    </edge>
    <edge id="E3" from="J1" to="J4" priority="-1">
        <lane id="E3_0" index="0" speed="13.89" length="86.40" shape="108.00,13.60 108.00,100.00"/>
        <lane id="E3_1" index="1" speed="13.89" length="86.40" shape="104.80,13.60 104.80,100.00"/>
        <lane id="E3_2" index="2" speed="13.89" length="86.40" shape="101.60,13.60 101.60,100.00"/>
    </edge>
    <edge id="E4" from="J1" to="J5" priority="-1">
        <lane id="E4_0" index="0" speed="13.89" length="86.40" shape="92.00,-13.60 92.00,-100.00"/>
        <lane id="E4_1" index="1" speed="13.89" length="86.40" shape="95.20,-13.60 95.20,-100.00"/>
        <lane id="E4_2" index="2" speed="13.89" length="86.40" shape="98.40,-13.60 98.40,-100.00"/>
    </edge>
    <edge id="E5" from="J2" to="J6" priority="-1">
        <lane id="E5_0" index="0" speed="13.89" length="86.40" shape="208.00,13.60 208.00,100.00"/>
        <lane id="E5_1" index="1" speed="13.89" length="86.40" shape="204.80,13.60 204.80,100.00"/>
        <lane id="E5_2" index="2" speed="13.89" length="86.40" shape="201.60,13.60 201.60,100.00"/>
    </edge>
    <edge id="E6" from="J2" to="J7" priority="-1">
        <lane id="E6_0" index="0" speed="13.89" length="86.40" shape="192.00,-13.60 192.00,-100.00"/>
        <lane id="E6_1" index="1" speed="13.89" length="86.40" shape="195.20,-13.60 195.20,-100.00"/>
        <lane id="E6_2" index="2" speed="13.89" length="86.40" shape="198.40,-13.60 198.40,-100.00"/>
    </edge>
    <edge id="E7" from="J3" to="J8" priority="-1">
        <lane id="E7_0" index="0" speed="13.89" length="72.80" shape="313.60,-8.00 386.40,-8.00"/>
        <lane id="E7_1" index="1" speed="13.89" length="72.80" shape="313.60,-4.80 386.40,-4.80"/>
        <lane id="E7_2" index="2" speed="13.89" length="72.80" shape="313.60,-1.60 386.40,-1.60"/>
    </edge>
    <edge id="E8" from="J3" to="J9" priority="-1">
        <lane id="E8_0" index="0" speed="13.89" length="86.40" shape="308.00,13.60 308.00,100.00"/>
        <lane id="E8_1" index="1" speed="13.89" length="86.40" shape="304.80,13.60 304.80,100.00"/>
        <lane id="E8_2" index="2" speed="13.89" length="86.40" shape="301.60,13.60 301.60,100.00"/>
    </edge>
    <edge id="E9" from="J3" to="J10" priority="-1">
        <lane id="E9_0" index="0" speed="13.89" length="86.40" shape="292.00,-13.60 292.00,-100.00"/>
        <lane id="E9_1" index="1" speed="13.89" length="86.40" shape="295.20,-13.60 295.20,-100.00"/>
        <lane id="E9_2" index="2" speed="13.89" length="86.40" shape="298.40,-13.60 298.40,-100.00"/>
    </edge>

    <tlLogic id="J1" type="static" programID="0" offset="0">
        <phase duration="33" state="GGgGrrGGgGrr"/>
        <phase duration="3"  state="yygyrryygyrr"/>
        <phase duration="6"  state="rrGrrrrrGrrr"/>
        <phase duration="3"  state="rryrrrrryrrr"/>
        <phase duration="33" state="GrrGGgGrrGGg"/>
        <phase duration="3"  state="yrryygyrryyg"/>
        <phase duration="6"  state="rrrrrGrrrrrG"/>
        <phase duration="3"  state="rrrrryrrrrry"/>
    </tlLogic>
    <tlLogic id="J2" type="static" programID="0" offset="0">
        <phase duration="33" state="GGgGrrGGgGrr"/>
        <phase duration="3"  state="yygyrryygyrr"/>
        <phase duration="6"  state="rrGrrrrrGrrr"/>
        <phase duration="3"  state="rryrrrrryrrr"/>
        <phase duration="33" state="GrrGGgGrrGGg"/>
        <phase duration="3"  state="yrryygyrryyg"/>
        <phase duration="6"  state="rrrrrGrrrrrG"/>
        <phase duration="3"  state="rrrrryrrrrry"/>
    </tlLogic>
    <tlLogic id="J3" type="static" programID="0" offset="0">
        <phase duration="33" state="GGgGrrGGgGrr"/>
        <phase duration="3"  state="yygyrryygyrr"/>
        <phase duration="6"  state="rrGrrrrrGrrr"/>
        <phase duration="3"  state="rryrrrrryrrr"/>
        <phase duration="33" state="GrrGGgGrrGGg"/>
        <phase duration="3"  state="yrryygyrryyg"/>
        <phase duration="6"  state="rrrrrGrrrrrG"/>
        <phase duration="3"  state="rrrrryrrrrry"/>
    </tlLogic>
    <tlLogic id="J8" type="static" programID="0" offset="0">
        <phase duration="33" state="GGgGrrGGgGrr"/>
        <phase duration="3"  state="yygyrryygyrr"/>
        <phase duration="6"  state="rrGrrrrrGrrr"/>
        <phase duration="3"  state="rryrrrrryrrr"/>
        <phase duration="33" state="GrrGGgGrrGGg"/>
        <phase duration="3"  state="yrryygyrryyg"/>
        <phase duration="6"  state="rrrrrGrrrrrG"/>
        <phase duration="3"  state="rrrrryrrrrry"/>
    </tlLogic>

    <junction id="J0" type="dead_end" x="0.00" y="0.00" incLanes="-E0_0 -E0_1 -E0_2" intLanes="" shape="0.00,0.00 0.00,9.60 0.00,0.00"/>
    <junction id="J1" type="traffic_light" x="100.00" y="0.00" incLanes="-E3_0 -E3_1 -E3_2 -E1_0 -E1_1 -E1_2 -E4_0 -E4_1 -E4_2 E0_0 E0_1 E0_2" intLanes=":J1_0_0 :J1_1_0 :J1_12_0 :J1_3_0 :J1_4_0 :J1_13_0 :J1_6_0 :J1_7_0 :J1_14_0 :J1_9_0 :J1_10_0 :J1_15_0" shape="90.40,13.60 109.60,13.60 110.04,11.38 110.60,10.60 111.38,10.04 112.38,9.71 113.60,9.60 113.60,-9.60 111.38,-10.04 110.60,-10.60 110.04,-11.38 109.71,-12.38 109.60,-13.60 90.40,-13.60 89.96,-11.38 89.40,-10.60 88.62,-10.04 87.62,-9.71 86.40,-9.60 86.40,9.60 88.62,10.04 89.40,10.60 89.96,11.38 90.29,12.38">
        <request index="0"  response="000000000000" foes="000000000000" cont="0"/>
        <request index="1"  response="100000000000" foes="110100010000" cont="0"/>
        <request index="2"  response="100010100000" foes="100010110000" cont="1"/>
        <request index="3"  response="000000000000" foes="000000000000" cont="0"/>
        <request index="4"  response="000010000110" foes="100010000110" cont="0"/>
        <request index="5"  response="010110000100" foes="010110000100" cont="1"/>
        <request index="6"  response="000000000000" foes="000000000000" cont="0"/>
        <request index="7"  response="000000100000" foes="010000110100" cont="0"/>
        <request index="8"  response="100000100010" foes="110000100010" cont="1"/>
        <request index="9"  response="000000000000" foes="000000000000" cont="0"/>
        <request index="10" response="000110000010" foes="000110100010" cont="0"/>
        <request index="11" response="000100010110" foes="000100010110" cont="1"/>
    </junction>
    <junction id="J10" type="dead_end" x="300.00" y="-100.00" incLanes="E9_0 E9_1 E9_2" intLanes="" shape="300.00,-100.00 290.40,-100.00 300.00,-100.00"/>
    <junction id="J11" type="dead_end" x="500.00" y="0.00" incLanes="E10_0 E10_1 E10_2" intLanes="" shape="500.00,0.00 500.00,-9.60 500.00,0.00"/>
    <junction id="J12" type="dead_end" x="400.00" y="100.00" incLanes="E11_0 E11_1 E11_2" intLanes="" shape="400.00,100.00 409.60,100.00 400.00,100.00"/>
    <junction id="J13" type="dead_end" x="400.00" y="-100.00" incLanes="E12_0 E12_1 E12_2" intLanes="" shape="400.00,-100.00 390.40,-100.00 400.00,-100.00"/>
    <junction id="J2" type="traffic_light" x="200.00" y="0.00" incLanes="-E5_0 -E5_1 -E5_2 -E2_0 -E2_1 -E2_2 -E6_0 -E6_1 -E6_2 E1_0 E1_1 E1_2" intLanes=":J2_0_0 :J2_1_0 :J2_12_0 :J2_3_0 :J2_4_0 :J2_13_0 :J2_6_0 :J2_7_0 :J2_14_0 :J2_9_0 :J2_10_0 :J2_15_0" shape="190.40,13.60 209.60,13.60 210.04,11.38 210.60,10.60 211.38,10.04 212.38,9.71 213.60,9.60 213.60,-9.60 211.38,-10.04 210.60,-10.60 210.04,-11.38 209.71,-12.38 209.60,-13.60 190.40,-13.60 189.96,-11.38 189.40,-10.60 188.62,-10.04 187.62,-9.71 186.40,-9.60 186.40,9.60 188.62,10.04 189.40,10.60 189.96,11.38 190.29,12.38">
        <request index="0"  response="000000000000" foes="000000000000" cont="0"/>
        <request index="1"  response="100000000000" foes="110100010000" cont="0"/>
        <request index="2"  response="100010100000" foes="100010110000" cont="1"/>
        <request index="3"  response="000000000000" foes="000000000000" cont="0"/>
        <request index="4"  response="000010000110" foes="100010000110" cont="0"/>
        <request index="5"  response="010110000100" foes="010110000100" cont="1"/>
        <request index="6"  response="000000000000" foes="000000000000" cont="0"/>
        <request index="7"  response="000000100000" foes="010000110100" cont="0"/>
        <request index="8"  response="100000100010" foes="110000100010" cont="1"/>
        <request index="9"  response="000000000000" foes="000000000000" cont="0"/>
        <request index="10" response="000110000010" foes="000110100010" cont="0"/>
        <request index="11" response="000100010110" foes="000100010110" cont="1"/>
    </junction>
    <junction id="J3" type="traffic_light" x="300.00" y="0.00" incLanes="-E8_0 -E8_1 -E8_2 -E7_0 -E7_1 -E7_2 -E9_0 -E9_1 -E9_2 E2_0 E2_1 E2_2" intLanes=":J3_0_0 :J3_1_0 :J3_12_0 :J3_3_0 :J3_4_0 :J3_13_0 :J3_6_0 :J3_7_0 :J3_14_0 :J3_9_0 :J3_10_0 :J3_15_0" shape="290.40,13.60 309.60,13.60 310.04,11.38 310.60,10.60 311.38,10.04 312.38,9.71 313.60,9.60 313.60,-9.60 311.38,-10.04 310.60,-10.60 310.04,-11.38 309.71,-12.38 309.60,-13.60 290.40,-13.60 289.96,-11.38 289.40,-10.60 288.62,-10.04 287.62,-9.71 286.40,-9.60 286.40,9.60 288.62,10.04 289.40,10.60 289.96,11.38 290.29,12.38">
        <request index="0"  response="000000000000" foes="000000000000" cont="0"/>
        <request index="1"  response="100000000000" foes="110100010000" cont="0"/>
        <request index="2"  response="100010100000" foes="100010110000" cont="1"/>
        <request index="3"  response="000000000000" foes="000000000000" cont="0"/>
        <request index="4"  response="000010000110" foes="100010000110" cont="0"/>
        <request index="5"  response="010110000100" foes="010110000100" cont="1"/>
        <request index="6"  response="000000000000" foes="000000000000" cont="0"/>
        <request index="7"  response="000000100000" foes="010000110100" cont="0"/>
        <request index="8"  response="100000100010" foes="110000100010" cont="1"/>
        <request index="9"  response="000000000000" foes="000000000000" cont="0"/>
        <request index="10" response="000110000010" foes="000110100010" cont="0"/>
        <request index="11" response="000100010110" foes="000100010110" cont="1"/>
    </junction>
    <junction id="J4" type="dead_end" x="100.00" y="100.00" incLanes="E3_0 E3_1 E3_2" intLanes="" shape="100.00,100.00 109.60,100.00 100.00,100.00"/>
    <junction id="J5" type="dead_end" x="100.00" y="-100.00" incLanes="E4_0 E4_1 E4_2" intLanes="" shape="100.00,-100.00 90.40,-100.00 100.00,-100.00"/>