<?xml version="1.0" encoding="UTF-8"?>

<!-- generated on 2024-03-16 15:12:31 by Eclipse SUMO netedit Version 1.19.0
<configuration xmlns:xsi="http://www.w3.org/2001/XMLSchema-instance" xsi:noNamespaceSchemaLocation="http://sumo.dlr.de/xsd/neteditConfiguration.xsd">

    <input>
        <sumo-net-file value="C:\Users\XT\Desktop\Capstone_AIforTraffic\Spring Week 7\spider.net.xml"/>
    </input>

    <output>
        <output-file value="C:\Users\XT\Desktop\Capstone_AIforTraffic\Spring Week 7\spider.net.xml"/>
    </output>

    <processing>
        <geometry.min-radius.fix.railways value="false"/>
        <geometry.max-grade.fix value="false"/>
        <offset.disable-normalization value="true"/>
        <lefthand value="0"/>
    </processing>

    <junctions>
        <no-turnarounds value="true"/>
        <junctions.corner-detail value="5"/>
        <junctions.limit-turn-speed value="5.50"/>
        <rectangular-lane-cut value="0"/>
    </junctions>

    <pedestrian>
        <walkingareas value="0"/>
    </pedestrian>

</configuration>
-->

<net version="1.16" junctionCornerDetail="5" limitTurnSpeed="5.50" xmlns:xsi="http://www.w3.org/2001/XMLSchema-instance" xsi:noNamespaceSchemaLocation="http://sumo.dlr.de/xsd/net_file.xsd">

    <location netOffset="450.48,487.46" convBoundary="90.10,97.49,850.48,877.44" origBoundary="-450.48,-487.46,500.00,487.46" projParameter="!"/>

    <edge id=":B1_0" function="internal">
        <lane id=":B1_0_0" index="0" speed="3.65" length="4.67" shape="550.48,489.06 549.28,488.26 548.88,487.46 549.28,486.66 550.48,485.86"/>
    </edge>
    <edge id=":B2_0" function="internal">
        <lane id=":B2_0_0" index="0" speed="3.65" length="4.67" shape="511.58,566.65 511.46,565.21 511.83,564.40 512.71,564.21 514.08,564.65"/>
    </edge>
    <edge id=":B3_0" function="internal">
        <lane id=":B3_0_0" index="0" speed="3.65" length="4.67" shape="426.67,584.60 427.72,583.61 428.59,583.40 429.28,583.97 429.79,585.32"/>
    </edge>
    <edge id=":B4_0" function="internal">
        <lane id=":B4_0_0" index="0" speed="3.65" length="4.67" shape="359.70,529.41 361.12,529.61 361.83,530.16 361.82,531.05 361.08,532.29"/>
    </edge>
    <edge id=":B5_0" function="internal">
        <lane id=":B5_0_0" index="0" speed="3.65" length="4.67" shape="361.08,442.64 361.82,443.88 361.83,444.77 361.12,445.32 359.70,445.52"/>
    </edge>
    <edge id=":B6_0" function="internal">
        <lane id=":B6_0_0" index="0" speed="3.65" length="4.67" shape="429.79,389.61 429.28,390.96 428.59,391.53 427.72,391.32 426.67,390.33"/>
    </edge>
    <edge id=":B7_0" function="internal">
        <lane id=":B7_0_0" index="0" speed="3.65" length="4.67" shape="514.08,410.28 512.71,410.72 511.83,410.53 511.46,409.72 511.58,408.28"/>
    </edge>
    <edge id=":C1_0" function="internal">
        <lane id=":C1_0_0" index="0" speed="10.83" length="17.64" shape="660.51,495.46 657.94,496.26 655.21,498.67 652.34,502.68 649.32,508.30"/>
    </edge>
    <edge id=":C1_1" function="internal">
        <lane id=":C1_1_0" index="0" speed="13.89" length="29.31" shape="660.51,492.26 631.20,492.26"/>
    </edge>
    <edge id=":C1_2" function="internal">
        <lane id=":C1_2_0" index="0" speed="13.62" length="10.37" shape="660.51,489.06 655.13,487.92 651.09,485.20"/>
    </edge>
    <edge id=":C1_12" function="internal">
        <lane id=":C1_12_0" index="0" speed="13.62" length="17.94" shape="651.09,485.20 650.03,484.49 645.21,478.78 640.67,470.79"/>
    </edge>
    <edge id=":C1_3" function="internal">
        <lane id=":C1_3_0" index="0" speed="10.83" length="17.64" shape="649.32,466.62 652.34,472.24 655.21,476.25 657.94,478.66 660.51,479.46"/>
    </edge>
    <edge id=":C1_4" function="internal">
        <lane id=":C1_4_0" index="0" speed="13.89" length="40.27" shape="646.44,468.01 649.95,477.73 651.12,487.46 649.95,497.19 646.44,506.91"/>
    </edge>
    <edge id=":C1_5" function="internal">
        <lane id=":C1_5_0" index="0" speed="9.81" length="15.03" shape="643.56,469.40 645.80,477.37 644.32,483.59 644.05,483.81"/>
    </edge>
    <edge id=":C1_13" function="internal">
        <lane id=":C1_13_0" index="0" speed="9.81" length="14.33" shape="644.05,483.81 639.36,487.62 631.20,489.06"/>
    </edge>
    <edge id=":C1_6" function="internal">
        <lane id=":C1_6_0" index="0" speed="5.75" length="9.17" shape="631.20,479.46 633.89,479.09 635.40,477.99 635.74,476.14 634.91,473.56"/>
    </edge>
    <edge id=":C1_7" function="internal">
        <lane id=":C1_7_0" index="0" speed="13.89" length="29.31" shape="631.20,482.66 660.51,482.66"/>
    </edge>
    <edge id=":C1_8" function="internal">
        <lane id=":C1_8_0" index="0" speed="9.81" length="12.04" shape="631.20,485.86 639.36,487.30 642.27,489.67"/>
    </edge>
    <edge id=":C1_14" function="internal">
        <lane id=":C1_14_0" index="0" speed="9.81" length="17.31" shape="642.27,489.67 644.32,491.33 645.80,497.55 643.56,505.52"/>
    </edge>
    <edge id=":C1_9" function="internal">
        <lane id=":C1_9_0" index="0" speed="5.75" length="9.17" shape="634.91,501.36 635.74,498.78 635.40,496.93 633.89,495.83 631.20,495.46"/>
    </edge>
    <edge id=":C1_10" function="internal">
        <lane id=":C1_10_0" index="0" speed="13.89" length="31.65" shape="637.79,502.75 640.55,495.10 641.47,487.46 640.55,479.82 637.79,472.17"/>
    </edge>
    <edge id=":C1_11" function="internal">
        <lane id=":C1_11_0" index="0" speed="13.62" length="13.54" shape="640.67,504.13 645.21,496.14 648.02,492.82"/>
    </edge>
    <edge id=":C1_15" function="internal">
        <lane id=":C1_15_0" index="0" speed="13.62" length="14.77" shape="648.02,492.82 650.03,490.43 655.13,487.00 660.51,485.86"/>
    </edge>
    <edge id=":C2_0" function="internal">
        <lane id=":C2_0_0" index="0" speed="10.83" length="17.65" shape="575.18,656.66 572.95,655.15 569.37,654.52 564.44,654.78 558.16,655.92"/>
    </edge>
    <edge id=":C2_1" function="internal">
        <lane id=":C2_1_0" index="0" speed="13.89" length="29.31" shape="577.68,654.67 559.41,631.75"/>
    </edge>
    <edge id=":C2_2" function="internal">
        <lane id=":C2_2_0" index="0" speed="13.62" length="10.37" shape="580.18,652.67 577.72,647.75 577.33,642.90"/>
    </edge>
    <edge id=":C2_12" function="internal">
        <lane id=":C2_12_0" index="0" speed="13.62" length="17.94" shape="577.33,642.90 577.22,641.63 578.68,634.30 582.10,625.77"/>
    </edge>
    <edge id=":C2_3" function="internal">
        <lane id=":C2_3_0" index="0" speed="10.83" length="17.64" shape="590.75,629.93 588.24,635.79 586.89,640.54 586.71,644.17 587.69,646.69"/>
    </edge>
    <edge id=":C2_4" function="internal">
        <lane id=":C2_4_0" index="0" speed="13.89" length="40.27" shape="587.87,628.54 582.46,637.35 575.58,644.33 567.25,649.48 557.45,652.80"/>
    </edge>
    <edge id=":C2_5" function="internal">
        <lane id=":C2_5_0" index="0" speed="9.81" length="15.03" shape="584.99,627.15 580.15,633.88 574.36,636.60 574.02,636.52"/>
    </edge>
    <edge id=":C2_13" function="internal">
        <lane id=":C2_13_0" index="0" speed="9.81" length="14.33" shape="574.02,636.52 568.12,635.24 561.91,629.76"/>
    </edge>
    <edge id=":C2_6" function="internal">
        <lane id=":C2_6_0" index="0" speed="5.75" length="9.17" shape="569.41,623.77 571.38,625.64 573.19,626.13 574.84,625.25 576.34,622.99"/>
    </edge>
    <edge id=":C2_7" function="internal">
        <lane id=":C2_7_0" index="0" speed="13.89" length="29.31" shape="566.91,625.76 585.19,648.68"/>
    </edge>
    <edge id=":C2_8" function="internal">
        <lane id=":C2_8_0" index="0" speed="9.81" length="12.04" shape="564.41,627.76 568.37,635.04 568.34,638.79"/>
    </edge>
    <edge id=":C2_14" function="internal">
        <lane id=":C2_14_0" index="0" speed="9.81" length="17.31" shape="568.34,638.79 568.31,641.43 564.38,646.46 556.74,649.68"/>
    </edge>
    <edge id=":C2_9" function="internal">
        <lane id=":C2_9_0" index="0" speed="5.75" length="9.17" shape="554.60,640.32 557.14,639.36 558.37,637.95 558.29,636.08 556.91,633.75"/>
    </edge>
    <edge id=":C2_10" function="internal">
        <lane id=":C2_10_0" index="0" speed="13.89" length="31.65" shape="555.32,643.44 563.01,640.83 569.56,636.79 574.97,631.30 579.22,624.38"/>
    </edge>
    <edge id=":C2_11" function="internal">
        <lane id=":C2_11_0" index="0" speed="13.62" length="13.54" shape="556.03,646.56 565.11,645.12 569.46,645.25"/>
    </edge>
    <edge id=":C2_15" function="internal">
        <lane id=":C2_15_0" index="0" speed="13.62" length="14.77" shape="569.46,645.25 572.58,645.33 578.44,647.18 582.69,650.68"/>
    </edge>
    <edge id=":C3_0" function="internal">
        <lane id=":C3_0_0" index="0" speed="10.83" length="17.64" shape="426.56,685.96 420.41,687.65 415.86,689.56 412.90,691.68 411.55,694.01"/>
    </edge>
    <edge id=":C3_1" function="internal">
        <lane id=":C3_1_0" index="0" speed="13.89" length="40.27" shape="425.84,682.84 415.58,684.10 405.84,683.08 396.62,679.77 387.91,674.18"/>
    </edge>
    <edge id=":C3_2" function="internal">
        <lane id=":C3_2_0" index="0" speed="9.81" length="15.03" shape="425.13,679.72 416.85,680.13 411.13,677.30 410.97,676.99"/>
    </edge>
    <edge id=":C3_12" function="internal">
        <lane id=":C3_12_0" index="0" speed="9.81" length="14.33" shape="410.97,676.99 408.30,671.57 408.71,663.30"/>
    </edge>
    <edge id=":C3_3" function="internal">
        <lane id=":C3_3_0" index="0" speed="5.75" length="9.17" shape="418.07,665.43 417.83,668.14 418.57,669.86 420.29,670.60 422.99,670.36"/>
    </edge>
    <edge id=":C3_4" function="internal">
        <lane id=":C3_4_0" index="0" speed="13.89" length="29.31" shape="414.95,664.72 408.43,693.30"/>
    </edge>
    <edge id=":C3_5" function="internal">
        <lane id=":C3_5_0" index="0" speed="9.81" length="12.04" shape="411.83,664.01 408.61,671.65 405.66,673.96"/>
    </edge>
    <edge id=":C3_13" function="internal">
        <lane id=":C3_13_0" index="0" speed="9.81" length="17.31" shape="405.66,673.96 403.58,675.58 397.19,675.64 389.91,671.68"/>
    </edge>
    <edge id=":C3_6" function="internal">
        <lane id=":C3_6_0" index="0" speed="5.75" length="9.17" shape="395.90,664.18 398.23,665.56 400.10,665.64 401.51,664.41 402.47,661.87"/>
    </edge>
    <edge id=":C3_7" function="internal">
        <lane id=":C3_7_0" index="0" speed="13.89" length="31.65" shape="393.90,666.68 400.74,671.07 407.98,673.67 415.64,674.47 423.71,673.48"/>
    </edge>
    <edge id=":C3_8" function="internal">
        <lane id=":C3_8_0" index="0" speed="13.62" length="13.54" shape="391.91,669.18 398.69,675.38 401.30,678.86"/>
    </edge>
    <edge id=":C3_14" function="internal">
        <lane id=":C3_14_0" index="0" speed="13.62" length="14.77" shape="401.30,678.86 403.18,681.35 405.39,687.09 405.31,692.59"/>
    </edge>
    <edge id=":C3_9" function="internal">
        <lane id=":C3_9_0" index="0" speed="10.83" length="17.64" shape="395.95,690.45 395.74,687.76 394.00,684.57 390.72,680.88 385.92,676.68"/>
    </edge>
    <edge id=":C3_10" function="internal">
        <lane id=":C3_10_0" index="0" speed="13.89" length="29.31" shape="399.07,691.16 405.59,662.59"/>
    </edge>
    <edge id=":C3_11" function="internal">
        <lane id=":C3_11_0" index="0" speed="13.62" length="10.37" shape="402.19,691.87 404.50,686.88 408.05,683.55"/>
    </edge>
    <edge id=":C3_15" function="internal">
        <lane id=":C3_15_0" index="0" speed="13.62" length="17.94" shape="408.05,683.55 408.97,682.68 415.61,679.25 424.42,676.60"/>
    </edge>
    <edge id=":C4_0" function="internal">
        <lane id=":C4_0_0" index="0" speed="10.83" length="17.64" shape="280.37,592.51 275.22,588.76 270.89,586.39 267.39,585.41 264.72,585.80"/>
    </edge>
    <edge id=":C4_1" function="internal">
        <lane id=":C4_1_0" index="0" speed="13.89" length="40.27" shape="282.37,590.01 274.98,582.77 269.71,574.52 266.54,565.25 265.49,554.96"/>
    </edge>
    <edge id=":C4_2" function="internal">
        <lane id=":C4_2_0" index="0" speed="9.81" length="15.03" shape="284.36,587.51 278.88,581.30 277.52,575.05 277.67,574.74"/>
    </edge>
    <edge id=":C4_12" function="internal">
        <lane id=":C4_12_0" index="0" speed="9.81" length="14.33" shape="277.67,574.74 280.24,569.27 286.96,564.43"/>
    </edge>
    <edge id=":C4_3" function="internal">
        <lane id=":C4_3_0" index="0" speed="5.75" length="9.17" shape="291.13,573.08 288.87,574.58 287.99,576.23 288.48,578.04 290.35,580.01"/>
    </edge>
    <edge id=":C4_4" function="internal">
        <lane id=":C4_4_0" index="0" speed="13.89" length="29.31" shape="289.74,570.20 263.33,582.92"/>
    </edge>
    <edge id=":C4_5" function="internal">
        <lane id=":C4_5_0" index="0" speed="9.81" length="12.04" shape="288.35,567.32 280.38,569.56 276.73,568.69"/>
    </edge>
    <edge id=":C4_13" function="internal">
        <lane id=":C4_13_0" index="0" speed="9.81" length="17.31" shape="276.73,568.69 274.16,568.08 270.13,563.12 268.69,554.96"/>
    </edge>
    <edge id=":C4_6" function="internal">
        <lane id=":C4_6_0" index="0" speed="5.75" length="9.17" shape="278.29,554.96 278.66,557.65 279.76,559.16 281.61,559.50 284.19,558.67"/>
    </edge>
    <edge id=":C4_7" function="internal">
        <lane id=":C4_7_0" index="0" speed="13.89" length="31.65" shape="275.09,554.96 275.92,563.05 278.41,570.33 282.55,576.82 288.36,582.51"/>
    </edge>
    <edge id=":C4_8" function="internal">
        <lane id=":C4_8_0" index="0" speed="13.62" length="13.54" shape="271.89,554.96 271.27,564.14 270.18,568.34"/>
    </edge>
    <edge id=":C4_14" function="internal">
        <lane id=":C4_14_0" index="0" speed="13.62" length="14.77" shape="270.18,568.34 269.40,571.37 266.30,576.67 261.95,580.03"/>
    </edge>
    <edge id=":C4_9" function="internal">
        <lane id=":C4_9_0" index="0" speed="10.83" length="17.64" shape="257.78,571.39 259.75,569.54 261.16,566.19 262.01,561.33 262.29,554.96"/>
    </edge>
    <edge id=":C4_10" function="internal">
        <lane id=":C4_10_0" index="0" speed="13.89" length="29.31" shape="259.17,574.27 285.58,561.55"/>
    </edge>
    <edge id=":C4_11" function="internal">
        <lane id=":C4_11_0" index="0" speed="13.62" length="10.37" shape="260.56,577.15 265.90,575.85 270.72,576.54"/>
    </edge>
    <edge id=":C4_15" function="internal">
        <lane id=":C4_15_0" index="0" speed="13.62" length="17.94" shape="270.72,576.54 271.98,576.72 278.80,579.78 286.36,585.01"/>
    </edge>
    <edge id=":C5_0" function="internal">
        <lane id=":C5_0_0" index="0" speed="10.83" length="17.64" shape="262.29,419.97 262.01,413.60 261.16,408.74 259.75,405.39 257.78,403.54"/>
    </edge>
    <edge id=":C5_1" function="internal">
        <lane id=":C5_1_0" index="0" speed="13.89" length="40.27" shape="265.49,419.97 266.54,409.68 269.71,400.41 274.98,392.16 282.37,384.92"/>
    </edge>
    <edge id=":C5_2" function="internal">
        <lane id=":C5_2_0" index="0" speed="9.81" length="15.03" shape="268.69,419.97 270.13,411.81 274.16,406.85 274.50,406.77"/>
    </edge>
    <edge id=":C5_12" function="internal">
        <lane id=":C5_12_0" index="0" speed="9.81" length="14.33" shape="274.50,406.77 280.38,405.37 288.35,407.61"/>
    </edge>
    <edge id=":C5_3" function="internal">
        <lane id=":C5_3_0" index="0" speed="5.75" length="9.17" shape="284.19,416.26 281.61,415.43 279.76,415.77 278.66,417.28 278.29,419.97"/>
    </edge>
    <edge id=":C5_4" function="internal">
        <lane id=":C5_4_0" index="0" speed="13.89" length="29.31" shape="285.58,413.38 259.17,400.66"/>
    </edge>
    <edge id=":C5_5" function="internal">
        <lane id=":C5_5_0" index="0" speed="9.81" length="29.35" shape="286.96,410.50 280.24,405.66 277.52,399.88 278.88,393.63 284.36,387.42"/>
    </edge>
    <edge id=":C5_6" function="internal">
        <lane id=":C5_6_0" index="0" speed="5.75" length="9.17" shape="290.35,394.92 288.48,396.89 287.99,398.70 288.87,400.35 291.13,401.85"/>
    </edge>
    <edge id=":C5_7" function="internal">
        <lane id=":C5_7_0" index="0" speed="13.89" length="31.65" shape="288.36,392.42 282.55,398.11 278.41,404.60 275.92,411.88 275.09,419.97"/>
    </edge>
    <edge id=":C5_8" function="internal">
        <lane id=":C5_8_0" index="0" speed="13.62" length="13.54" shape="286.36,389.92 278.80,395.15 274.83,396.93"/>
    </edge>
    <edge id=":C5_13" function="internal">
        <lane id=":C5_13_0" index="0" speed="13.62" length="14.77" shape="274.83,396.93 271.98,398.21 265.90,399.08 260.56,397.78"/>
    </edge>
    <edge id=":C5_9" function="internal">
        <lane id=":C5_9_0" index="0" speed="10.83" length="17.64" shape="264.72,389.13 267.39,389.52 270.89,388.54 275.22,386.17 280.37,382.42"/>
    </edge>
    <edge id=":C5_10" function="internal">
        <lane id=":C5_10_0" index="0" speed="13.89" length="29.31" shape="263.33,392.01 289.74,404.73"/>
    </edge>
    <edge id=":C5_11" function="internal">
        <lane id=":C5_11_0" index="0" speed="13.62" length="28.31" shape="261.95,394.90 266.30,398.26 269.40,403.56 271.27,410.79 271.89,419.97"/>
    </edge>
    <edge id=":C6_0" function="internal">
        <lane id=":C6_0_0" index="0" speed="5.75" length="9.17" shape="402.47,313.06 401.51,310.52 400.10,309.29 398.23,309.37 395.90,310.75"/>
    </edge>
    <edge id=":C6_1" function="internal">
        <lane id=":C6_1_0" index="0" speed="13.89" length="29.31" shape="405.59,312.34 399.07,283.77"/>
    </edge>
    <edge id=":C6_2" function="internal">
        <lane id=":C6_2_0" index="0" speed="9.81" length="12.04" shape="408.71,311.63 408.30,303.36 409.96,299.99"/>
    </edge>
    <edge id=":C6_12" function="internal">
        <lane id=":C6_12_0" index="0" speed="9.81" length="17.31" shape="409.96,299.99 411.13,297.63 416.85,294.80 425.13,295.21"/>
    </edge>
    <edge id=":C6_3" function="internal">
        <lane id=":C6_3_0" index="0" speed="5.75" length="9.17" shape="422.99,304.57 420.29,304.33 418.57,305.07 417.83,306.79 418.07,309.50"/>
    </edge>
    <edge id=":C6_4" function="internal">
        <lane id=":C6_4_0" index="0" speed="13.89" length="31.65" shape="423.71,301.45 415.64,300.46 407.98,301.26 400.74,303.86 393.90,308.25"/>
    </edge>
    <edge id=":C6_5" function="internal">
        <lane id=":C6_5_0" index="0" speed="13.62" length="13.54" shape="424.42,298.33 415.61,295.68 411.75,293.69"/>
    </edge>
    <edge id=":C6_13" function="internal">
        <lane id=":C6_13_0" index="0" speed="13.62" length="14.77" shape="411.75,293.69 408.97,292.25 404.50,288.05 402.19,283.06"/>
    </edge>
    <edge id=":C6_6" function="internal">
        <lane id=":C6_6_0" index="0" speed="10.83" length="17.64" shape="411.55,280.92 412.90,283.25 415.86,285.37 420.41,287.28 426.56,288.97"/>
    </edge>
    <edge id=":C6_7" function="internal">
        <lane id=":C6_7_0" index="0" speed="13.89" length="29.31" shape="408.43,281.63 414.95,310.21"/>
    </edge>
    <edge id=":C6_8" function="internal">
        <lane id=":C6_8_0" index="0" speed="13.62" length="10.37" shape="405.31,282.34 405.39,287.84 403.64,292.39"/>
    </edge>
    <edge id=":C6_14" function="internal">
        <lane id=":C6_14_0" index="0" speed="13.62" length="17.94" shape="403.64,292.39 403.18,293.58 398.69,299.55 391.91,305.75"/>
    </edge>
    <edge id=":C6_9" function="internal">
        <lane id=":C6_9_0" index="0" speed="10.83" length="17.64" shape="385.92,298.25 390.72,294.05 394.00,290.36 395.74,287.17 395.95,284.48"/>
    </edge>
    <edge id=":C6_10" function="internal">
        <lane id=":C6_10_0" index="0" speed="13.89" length="40.27" shape="387.91,300.75 396.62,295.16 405.84,291.85 415.58,290.83 425.84,292.09"/>
    </edge>
    <edge id=":C6_11" function="internal">
        <lane id=":C6_11_0" index="0" speed="9.81" length="15.03" shape="389.91,303.25 397.19,299.29 403.58,299.35 403.85,299.57"/>
    </edge>
    <edge id=":C6_15" function="internal">
        <lane id=":C6_15_0" index="0" speed="9.81" length="14.33" shape="403.85,299.57 408.61,303.28 411.83,310.92"/>
    </edge>
    <edge id=":C7_0" function="internal">
        <lane id=":C7_0_0" index="0" speed="5.75" length="9.17" shape="576.34,351.94 574.84,349.68 573.19,348.80 571.38,349.29 569.41,351.16"/>
    </edge>
    <edge id=":C7_1" function="internal">
        <lane id=":C7_1_0" index="0" speed="13.89" length="31.65" shape="579.22,350.55 574.97,343.63 569.56,338.14 563.01,334.10 555.32,331.49"/>
    </edge>
    <edge id=":C7_2" function="internal">
        <lane id=":C7_2_0" index="0" speed="13.62" length="13.54" shape="582.10,349.16 578.68,340.63 577.83,336.37"/>
    </edge>
    <edge id=":C7_12" function="internal">
        <lane id=":C7_12_0" index="0" speed="13.62" length="14.77" shape="577.83,336.37 577.22,333.30 577.72,327.18 580.18,322.26"/>
    </edge>
    <edge id=":C7_3" function="internal">
        <lane id=":C7_3_0" index="0" speed="10.83" length="17.64" shape="587.69,328.24 586.71,330.76 586.89,334.39 588.24,339.14 590.75,345.00"/>
    </edge>
    <edge id=":C7_4" function="internal">
        <lane id=":C7_4_0" index="0" speed="13.89" length="29.31" shape="585.19,326.25 566.91,349.17"/>
    </edge>
    <edge id=":C7_5" function="internal">
        <lane id=":C7_5_0" index="0" speed="13.62" length="10.37" shape="582.69,324.25 578.44,327.75 573.79,329.21"/>
    </edge>
    <edge id=":C7_13" function="internal">
        <lane id=":C7_13_0" index="0" speed="13.62" length="17.94" shape="573.79,329.21 572.58,329.60 565.11,329.81 556.03,328.37"/>
    </edge>
    <edge id=":C7_6" function="internal">
        <lane id=":C7_6_0" index="0" speed="10.83" length="17.64" shape="558.16,319.01 564.44,320.15 569.37,320.41 572.95,319.78 575.18,318.27"/>
    </edge>
    <edge id=":C7_7" function="internal">
        <lane id=":C7_7_0" index="0" speed="13.89" length="40.27" shape="557.45,322.13 567.25,325.45 575.58,330.60 582.46,337.58 587.87,346.39"/>
    </edge>
    <edge id=":C7_8" function="internal">
        <lane id=":C7_8_0" index="0" speed="9.81" length="15.03" shape="556.74,325.25 564.38,328.47 568.31,333.50 568.31,333.85"/>
    </edge>
    <edge id=":C7_14" function="internal">
        <lane id=":C7_14_0" index="0" speed="9.81" length="14.33" shape="568.31,333.85 568.37,339.89 564.41,347.17"/>
    </edge>
    <edge id=":C7_9" function="internal">
        <lane id=":C7_9_0" index="0" speed="5.75" length="9.17" shape="556.91,341.18 558.29,338.85 558.37,336.98 557.14,335.57 554.60,334.61"/>
    </edge>
    <edge id=":C7_10" function="internal">
        <lane id=":C7_10_0" index="0" speed="13.89" length="29.31" shape="559.41,343.18 577.68,320.26"/>
    </edge>
    <edge id=":C7_11" function="internal">
        <lane id=":C7_11_0" index="0" speed="9.81" length="12.04" shape="561.91,345.17 568.12,339.69 571.79,338.89"/>
    </edge>
    <edge id=":C7_15" function="internal">
        <lane id=":C7_15_0" index="0" speed="9.81" length="17.31" shape="571.79,338.89 574.36,338.33 580.15,341.05 584.99,347.77"/>
    </edge>
    <edge id=":D1_0" function="internal">
        <lane id=":D1_0_0" index="0" speed="10.83" length="17.64" shape="760.51,495.46 757.94,496.26 755.21,498.67 752.34,502.68 749.32,508.30"/>
    </edge>
    <edge id=":D1_1" function="internal">
        <lane id=":D1_1_0" index="0" speed="13.89" length="29.31" shape="760.51,492.26 731.20,492.26"/>
    </edge>
    <edge id=":D1_2" function="internal">
        <lane id=":D1_2_0" index="0" speed="13.62" length="10.37" shape="760.51,489.06 755.13,487.92 751.09,485.20"/>
    </edge>
    <edge id=":D1_12" function="internal">
        <lane id=":D1_12_0" index="0" speed="13.62" length="17.94" shape="751.09,485.20 750.03,484.49 745.21,478.78 740.67,470.79"/>
    </edge>
    <edge id=":D1_3" function="internal">
        <lane id=":D1_3_0" index="0" speed="10.83" length="17.64" shape="749.32,466.62 752.34,472.24 755.21,476.25 757.94,478.66 760.51,479.46"/>
    </edge>
    <edge id=":D1_4" function="internal">
        <lane id=":D1_4_0" index="0" speed="13.89" length="40.27" shape="746.44,468.01 749.95,477.73 751.12,487.46 749.95,497.19 746.44,506.91"/>
    </edge>
    <edge id=":D1_5" function="internal">
        <lane id=":D1_5_0" index="0" speed="9.81" length="15.03" shape="743.56,469.40 745.80,477.37 744.32,483.59 744.05,483.81"/>
    </edge>
    <edge id=":D1_13" function="internal">
        <lane id=":D1_13_0" index="0" speed="9.81" length="14.33" shape="744.05,483.81 739.36,487.62 731.20,489.06"/>
    </edge>
    <edge id=":D1_6" function="internal">
        <lane id=":D1_6_0" index="0" speed="5.75" length="9.17" shape="731.20,479.46 733.89,479.09 735.40,477.99 735.74,476.14 734.91,473.56"/>
    </edge>
    <edge id=":D1_7" function="internal">
        <lane id=":D1_7_0" index="0" speed="13.89" length="29.31" shape="731.20,482.66 760.51,482.66"/>
    </edge>
    <edge id=":D1_8" function="internal">
        <lane id=":D1_8_0" index="0" speed="9.81" length="12.04" shape="731.20,485.86 739.36,487.30 742.27,489.67"/>
    </edge>
    <edge id=":D1_14" function="internal">
        <lane id=":D1_14_0" index="0" speed="9.81" length="17.31" shape="742.27,489.67 744.32,491.33 745.80,497.55 743.56,505.52"/>
    </edge>
    <edge id=":D1_9" function="internal">
        <lane id=":D1_9_0" index="0" speed="5.75" length="9.17" shape="734.91,501.36 735.74,498.78 735.40,496.93 733.89,495.83 731.20,495.46"/>
    </edge>
    <edge id=":D1_10" function="internal">
        <lane id=":D1_10_0" index="0" speed="13.89" length="31.65" shape="737.79,502.75 740.55,495.10 741.47,487.46 740.55,479.82 737.79,472.17"/>
    </edge>
    <edge id=":D1_11" function="internal">
        <lane id=":D1_11_0" index="0" speed="13.62" length="13.54" shape="740.67,504.13 745.21,496.14 748.02,492.82"/>
    </edge>
    <edge id=":D1_15" function="internal">
        <lane id=":D1_15_0" index="0" speed="13.62" length="14.77" shape="748.02,492.82 750.03,490.43 755.13,487.00 760.51,485.86"/>
    </edge>
    <edge id=":D2_0" function="internal">
        <lane id=":D2_0_0" index="0" speed="10.83" length="17.64" shape="637.53,734.84 635.30,733.33 631.72,732.70 626.79,732.96 620.51,734.10"/>
    </edge>
    <edge id=":D2_1" function="internal">
        <lane id=":D2_1_0" index="0" speed="13.89" length="29.31" shape="640.03,732.85 621.76,709.93"/>
    </edge>
    <edge id=":D2_2" function="internal">
        <lane id=":D2_2_0" index="0" speed="13.62" length="10.37" shape="642.53,730.85 640.07,725.93 639.68,721.08"/>
    </edge>
    <edge id=":D2_12" function="internal">
        <lane id=":D2_12_0" index="0" speed="13.62" length="17.94" shape="639.68,721.08 639.57,719.81 641.03,712.48 644.45,703.95"/>
    </edge>
    <edge id=":D2_3" function="internal">
        <lane id=":D2_3_0" index="0" speed="10.83" length="17.64" shape="653.10,708.11 650.59,713.97 649.24,718.72 649.06,722.35 650.04,724.87"/>
    </edge>
    <edge id=":D2_4" function="internal">
        <lane id=":D2_4_0" index="0" speed="13.89" length="40.27" shape="650.22,706.72 644.81,715.53 637.93,722.51 629.60,727.66 619.80,730.98"/>
    </edge>
    <edge id=":D2_5" function="internal">
        <lane id=":D2_5_0" index="0" speed="9.81" length="15.03" shape="647.34,705.34 642.50,712.06 636.71,714.78 636.37,714.70"/>
    </edge>
    <edge id=":D2_13" function="internal">
        <lane id=":D2_13_0" index="0" speed="9.81" length="14.33" shape="636.37,714.70 630.47,713.42 624.26,707.94"/>
    </edge>
    <edge id=":D2_6" function="internal">
        <lane id=":D2_6_0" index="0" speed="5.75" length="9.17" shape="631.76,701.95 633.73,703.82 635.54,704.31 637.19,703.43 638.69,701.17"/>
    </edge>
    <edge id=":D2_7" function="internal">
        <lane id=":D2_7_0" index="0" speed="13.89" length="29.31" shape="629.26,703.94 647.54,726.86"/>
    </edge>
    <edge id=":D2_8" function="internal">
        <lane id=":D2_8_0" index="0" speed="9.81" length="12.04" shape="626.76,705.94 630.72,713.22 630.69,716.97"/>
    </edge>
    <edge id=":D2_14" function="internal">
        <lane id=":D2_14_0" index="0" speed="9.81" length="17.31" shape="630.69,716.97 630.66,719.61 626.73,724.64 619.09,727.86"/>
    </edge>
    <edge id=":D2_9" function="internal">
        <lane id=":D2_9_0" index="0" speed="5.75" length="9.17" shape="616.95,718.50 619.49,717.54 620.72,716.13 620.64,714.26 619.26,711.93"/>
    </edge>
    <edge id=":D2_10" function="internal">
        <lane id=":D2_10_0" index="0" speed="13.89" length="31.65" shape="617.67,721.62 625.36,719.01 631.91,714.97 637.32,709.48 641.57,702.56"/>
    </edge>
    <edge id=":D2_11" function="internal">
        <lane id=":D2_11_0" index="0" speed="13.62" length="13.54" shape="618.38,724.74 627.46,723.30 631.81,723.43"/>
    </edge>
    <edge id=":D2_15" function="internal">
        <lane id=":D2_15_0" index="0" speed="13.62" length="14.77" shape="631.81,723.43 634.93,723.51 640.79,725.36 645.04,728.86"/>
    </edge>
    <edge id=":D3_0" function="internal">
        <lane id=":D3_0_0" index="0" speed="10.83" length="17.64" shape="404.31,783.45 398.16,785.14 393.61,787.05 390.65,789.17 389.30,791.50"/>
    </edge>
    <edge id=":D3_1" function="internal">
        <lane id=":D3_1_0" index="0" speed="13.89" length="40.27" shape="403.59,780.33 393.33,781.59 383.59,780.57 374.37,777.26 365.66,771.67"/>
    </edge>
    <edge id=":D3_2" function="internal">
        <lane id=":D3_2_0" index="0" speed="9.81" length="15.03" shape="402.88,777.21 394.60,777.62 388.88,774.79 388.72,774.48"/>
    </edge>
    <edge id=":D3_12" function="internal">
        <lane id=":D3_12_0" index="0" speed="9.81" length="14.33" shape="388.72,774.48 386.05,769.06 386.46,760.79"/>
    </edge>
    <edge id=":D3_3" function="internal">
        <lane id=":D3_3_0" index="0" speed="5.75" length="9.17" shape="395.82,762.93 395.58,765.63 396.32,767.35 398.04,768.09 400.74,767.85"/>
    </edge>